(PID.TID 0000.0001) 
(PID.TID 0000.0001) // ======================================================
(PID.TID 0000.0001) //                      MITgcm UV
(PID.TID 0000.0001) //                      =========
(PID.TID 0000.0001) // ======================================================
(PID.TID 0000.0001) // execution environment starting up...
(PID.TID 0000.0001) 
(PID.TID 0000.0001) // MITgcmUV version:  checkpoint61y
(PID.TID 0000.0001) // Build user:        jmc
(PID.TID 0000.0001) // Build host:        faulks.csail.mit.edu
(PID.TID 0000.0001) // Build date:        Thu Nov 19 17:55:53 EST 2009
(PID.TID 0000.0001) 
(PID.TID 0000.0001) // =======================================================
(PID.TID 0000.0001) // Execution Environment parameter file "eedata"
(PID.TID 0000.0001) // =======================================================
(PID.TID 0000.0001) ># Example "eedata" file
(PID.TID 0000.0001) ># Lines beginning "#" are comments
(PID.TID 0000.0001) ># nTx - No. threads per process in X
(PID.TID 0000.0001) ># nTy - No. threads per process in Y
(PID.TID 0000.0001) > &EEPARMS
(PID.TID 0000.0001) > nTx=1,
(PID.TID 0000.0001) > nTy=1,
(PID.TID 0000.0001) > &
(PID.TID 0000.0001) ># Note: Some systems use & as the
(PID.TID 0000.0001) ># namelist terminator. Other systems
(PID.TID 0000.0001) ># use a / character (as shown here).
(PID.TID 0000.0001) 
(PID.TID 0000.0001) // =======================================================
(PID.TID 0000.0001) // Computational Grid Specification ( see files "SIZE.h" )
(PID.TID 0000.0001) //                                  ( and "eedata"       )
(PID.TID 0000.0001) // =======================================================
(PID.TID 0000.0001)      nPx =    1 ; /* No. processes in X */
(PID.TID 0000.0001)      nPy =    1 ; /* No. processes in Y */
(PID.TID 0000.0001)      nSx =    2 ; /* No. tiles in X per process */
(PID.TID 0000.0001)      nSy =    1 ; /* No. tiles in Y per process */
(PID.TID 0000.0001)      sNx =   45 ; /* Tile size in X */
(PID.TID 0000.0001)      sNy =   40 ; /* Tile size in Y */
(PID.TID 0000.0001)      OLx =    2 ; /* Tile overlap distance in X */
(PID.TID 0000.0001)      OLy =    2 ; /* Tile overlap distance in Y */
(PID.TID 0000.0001)      nTx =    1 ; /* No. threads in X per process */
(PID.TID 0000.0001)      nTy =    1 ; /* No. threads in Y per process */
(PID.TID 0000.0001)       Nr =   15 ; /* No. levels in the vertical   */
(PID.TID 0000.0001)       Nx =   90 ; /* Total domain size in X ( = nPx*nSx*sNx ) */
(PID.TID 0000.0001)       Ny =   40 ; /* Total domain size in Y ( = nPy*nSy*sNy ) */
(PID.TID 0000.0001)   nTiles =    2 ; /* Total no. tiles per process ( = nSx*nSy ) */
(PID.TID 0000.0001)   nProcs =    1 ; /* Total no. processes ( = nPx*nPy ) */
(PID.TID 0000.0001) nThreads =    1 ; /* Total no. threads per process ( = nTx*nTy ) */
(PID.TID 0000.0001) usingMPI =    F ; /* Flag used to control whether MPI is in use */
(PID.TID 0000.0001)                   /*  note: To execute a program with MPI calls */
(PID.TID 0000.0001)                   /*  it must be launched appropriately e.g     */
(PID.TID 0000.0001)                   /*  "mpirun -np 64 ......"                    */
(PID.TID 0000.0001) useCoupler=    F ;/* Flag used to control communications with   */
(PID.TID 0000.0001)                   /*  other model components, through a coupler */
(PID.TID 0000.0001) printMapIncludesZeros=    F ; /* print zeros in Std.Output maps */
(PID.TID 0000.0001) maxLengthPrt1D=   65 /* maxLength of 1D array printed to StdOut */
(PID.TID 0000.0001) 
(PID.TID 0000.0001) // ======================================================
(PID.TID 0000.0001) // Mapping of tiles to threads
(PID.TID 0000.0001) // ======================================================
(PID.TID 0000.0001) // -o- Thread   1, tiles (   1:   2,   1:   1)
(PID.TID 0000.0001) 
(PID.TID 0000.0001) // ======================================================
(PID.TID 0000.0001) // Tile <-> Tile connectvity table
(PID.TID 0000.0001) // ======================================================
(PID.TID 0000.0001) // Tile number: 000001 (process no. = 000001)
(PID.TID 0000.0001) //        WEST: Tile = 000002, Process = 000001, Comm = put
(PID.TID 0000.0001) //                bi = 000002, bj = 000001
(PID.TID 0000.0001) //        EAST: Tile = 000002, Process = 000001, Comm = put
(PID.TID 0000.0001) //                bi = 000002, bj = 000001
(PID.TID 0000.0001) //       SOUTH: Tile = 000001, Process = 000001, Comm = put
(PID.TID 0000.0001) //                bi = 000001, bj = 000001
(PID.TID 0000.0001) //       NORTH: Tile = 000001, Process = 000001, Comm = put
(PID.TID 0000.0001) //                bi = 000001, bj = 000001
(PID.TID 0000.0001) // Tile number: 000002 (process no. = 000001)
(PID.TID 0000.0001) //        WEST: Tile = 000001, Process = 000001, Comm = put
(PID.TID 0000.0001) //                bi = 000001, bj = 000001
(PID.TID 0000.0001) //        EAST: Tile = 000001, Process = 000001, Comm = put
(PID.TID 0000.0001) //                bi = 000001, bj = 000001
(PID.TID 0000.0001) //       SOUTH: Tile = 000002, Process = 000001, Comm = put
(PID.TID 0000.0001) //                bi = 000002, bj = 000001
(PID.TID 0000.0001) //       NORTH: Tile = 000002, Process = 000001, Comm = put
(PID.TID 0000.0001) //                bi = 000002, bj = 000001
(PID.TID 0000.0001) 
(PID.TID 0000.0001) DEBUG_MSG: ENTERED S/R THE_MODEL_MAIN
(PID.TID 0000.0001) DEBUG_MSG: CALLING S/R INITIALISE_FIXED
(PID.TID 0000.0001) // =======================================================
(PID.TID 0000.0001) // Model parameter file "data"
(PID.TID 0000.0001) // =======================================================
(PID.TID 0000.0001) ># ====================
(PID.TID 0000.0001) ># | Model parameters |
(PID.TID 0000.0001) ># ====================
(PID.TID 0000.0001) >#
(PID.TID 0000.0001) ># Continuous equation parameters
(PID.TID 0000.0001) > &PARM01
(PID.TID 0000.0001) > tRef = 15*20.,
(PID.TID 0000.0001) > sRef = 15*35.,
(PID.TID 0000.0001) > viscAr=1.E-3,
(PID.TID 0000.0001) > viscAh=5.E5,
(PID.TID 0000.0001) > diffKhT=0.,
(PID.TID 0000.0001) > diffKrT=3.E-5,
(PID.TID 0000.0001) > diffKhS=0.,
(PID.TID 0000.0001) > diffKrS=3.E-5,
(PID.TID 0000.0001) > rhonil=1035.,
(PID.TID 0000.0001) > rhoConstFresh=1000.,
(PID.TID 0000.0001) > eosType = 'JMD95Z',
(PID.TID 0000.0001) > ivdc_kappa=100.,
(PID.TID 0000.0001) > implicitDiffusion=.TRUE.,
(PID.TID 0000.0001) > allowFreezing=.TRUE.,
(PID.TID 0000.0001) > exactConserv=.TRUE.,
(PID.TID 0000.0001) > useRealFreshWaterFlux=.TRUE.,
(PID.TID 0000.0001) > useCDscheme=.TRUE.,
(PID.TID 0000.0001) ># turn on looped cells
(PID.TID 0000.0001) > hFacMin=.05,
(PID.TID 0000.0001) > hFacMindr=50.,
(PID.TID 0000.0001) ># set precision of data files
(PID.TID 0000.0001) > readBinaryPrec=32,
(PID.TID 0000.0001) > &
(PID.TID 0000.0001) >
(PID.TID 0000.0001) ># Elliptic solver parameters
(PID.TID 0000.0001) > &PARM02
(PID.TID 0000.0001) > cg2dMaxIters=500,
(PID.TID 0000.0001) > cg2dTargetResidual=1.E-13,
(PID.TID 0000.0001) > &
(PID.TID 0000.0001) >
(PID.TID 0000.0001) ># Time stepping parameters
(PID.TID 0000.0001) > &PARM03
(PID.TID 0000.0001) > nIter0=       0,
(PID.TID 0000.0001) > nTimeSteps = 20,
(PID.TID 0000.0001) ># 100 years of integration will yield a reasonable flow field
(PID.TID 0000.0001) ># startTime =          0.,
(PID.TID 0000.0001) ># endTime   = 3110400000.,
(PID.TID 0000.0001) > deltaTmom = 1800.,
(PID.TID 0000.0001) > tauCD =     321428.,
(PID.TID 0000.0001) > deltaTtracer= 86400.,
(PID.TID 0000.0001) > deltaTClock = 86400.,
(PID.TID 0000.0001) > deltaTfreesurf= 86400.,
(PID.TID 0000.0001) > abEps = 0.1,
(PID.TID 0000.0001) > pChkptFreq= 1728000.,
(PID.TID 0000.0001) > dumpFreq=   864000.,
(PID.TID 0000.0001) > taveFreq=   864000.,
(PID.TID 0000.0001) > monitorFreq=1.,
(PID.TID 0000.0001) ># 2 months restoring timescale for temperature
(PID.TID 0000.0001) > tauThetaClimRelax=  5184000.,
(PID.TID 0000.0001) ># 6 months restoring timescale for salinity
(PID.TID 0000.0001) > tauSaltClimRelax = 15552000.,
(PID.TID 0000.0001) > periodicExternalForcing=.TRUE.,
(PID.TID 0000.0001) > externForcingPeriod=2592000.,
(PID.TID 0000.0001) > externForcingCycle=31104000.,
(PID.TID 0000.0001) > &
(PID.TID 0000.0001) >
(PID.TID 0000.0001) ># Gridding parameters
(PID.TID 0000.0001) > &PARM04
(PID.TID 0000.0001) > usingSphericalPolarGrid=.TRUE.,
(PID.TID 0000.0001) > delR= 50.,  70., 100., 140., 190.,
(PID.TID 0000.0001) >      240., 290., 340., 390., 440.,
(PID.TID 0000.0001) >      490., 540., 590., 640., 690.,
(PID.TID 0000.0001) > ygOrigin=-80.,
(PID.TID 0000.0001) > dySpacing=4.,
(PID.TID 0000.0001) > dxSpacing=4.,
(PID.TID 0000.0001) > &
(PID.TID 0000.0001) >
(PID.TID 0000.0001) ># Input datasets
(PID.TID 0000.0001) > &PARM05
(PID.TID 0000.0001) > bathyFile=      'bathymetry.bin',
(PID.TID 0000.0001) > hydrogThetaFile='lev_t.bin',
(PID.TID 0000.0001) > hydrogSaltFile= 'lev_s.bin',
(PID.TID 0000.0001) > zonalWindFile=  'trenberth_taux.bin',
(PID.TID 0000.0001) > meridWindFile=  'trenberth_tauy.bin',
(PID.TID 0000.0001) > thetaClimFile=  'lev_sst.bin',
(PID.TID 0000.0001) > saltClimFile=   'lev_sss.bin',
(PID.TID 0000.0001) > surfQFile=      'ncep_qnet.bin',
(PID.TID 0000.0001) > the_run_name=   'global_oce_latlon',
(PID.TID 0000.0001) ># fresh water flux is turned on, comment next line to it turn off
(PID.TID 0000.0001) ># (maybe better with surface salinity restoring)
(PID.TID 0000.0001) > EmPmRFile=      'ncep_emp.bin',
(PID.TID 0000.0001) > &
(PID.TID 0000.0001) 
(PID.TID 0000.0001) S/R INI_PARMS ; starts to read PARM01
(PID.TID 0000.0001) S/R INI_PARMS ; read PARM01 : OK
(PID.TID 0000.0001) S/R INI_PARMS: No request for barotropic solver
(PID.TID 0000.0001) S/R INI_PARMS: => Use implicitFreeSurface as default
(PID.TID 0000.0001) S/R INI_PARMS ; starts to read PARM02
(PID.TID 0000.0001) S/R INI_PARMS ; read PARM02 : OK
(PID.TID 0000.0001) S/R INI_PARMS ; starts to read PARM03
(PID.TID 0000.0001) S/R INI_PARMS ; read PARM03 : OK
(PID.TID 0000.0001) S/R INI_PARMS ; starts to read PARM04
(PID.TID 0000.0001) S/R INI_PARMS ; read PARM04 : OK
(PID.TID 0000.0001) S/R INI_PARMS ; starts to read PARM05
(PID.TID 0000.0001) S/R INI_PARMS ; read PARM05 : OK
(PID.TID 0000.0001)  PACKAGES_BOOT: opening data.pkg
(PID.TID 0000.0001)  OPEN_COPY_DATA_FILE: opening file data.pkg
(PID.TID 0000.0001) // =======================================================
(PID.TID 0000.0001) // Parameter file "data.pkg"
(PID.TID 0000.0001) // =======================================================
(PID.TID 0000.0001) ># Packages (lines beginning "#" are comments)
(PID.TID 0000.0001) > &PACKAGES
(PID.TID 0000.0001) > useGMRedi=.TRUE.,
(PID.TID 0000.0001) > usePTRACERS=.TRUE.,
(PID.TID 0000.0001) >#useMNC=.TRUE.,
(PID.TID 0000.0001) > &
(PID.TID 0000.0001) 
(PID.TID 0000.0001)  PACKAGES_BOOT: finished reading data.pkg
(PID.TID 0000.0001)  GM_READPARMS: opening data.gmredi
(PID.TID 0000.0001)  OPEN_COPY_DATA_FILE: opening file data.gmredi
(PID.TID 0000.0001) // =======================================================
(PID.TID 0000.0001) // Parameter file "data.gmredi"
(PID.TID 0000.0001) // =======================================================
(PID.TID 0000.0001) ># GM+Redi package parameters:
(PID.TID 0000.0001) >
(PID.TID 0000.0001) >#-from MOM :
(PID.TID 0000.0001) ># GM_background_K: 	G & Mc.W  diffusion coefficient
(PID.TID 0000.0001) ># GM_maxSlope    :	max slope of isopycnals
(PID.TID 0000.0001) ># GM_Scrit       :	transition for scaling diffusion coefficient
(PID.TID 0000.0001) ># GM_Sd          :	half width scaling for diffusion coefficient
(PID.TID 0000.0001) ># GM_taper_scheme:	slope clipping or one of the tapering schemes
(PID.TID 0000.0001) ># GM_Kmin_horiz  :	horizontal diffusion minimum value
(PID.TID 0000.0001) >
(PID.TID 0000.0001) >#-Option parameters (needs to "define" options in GMREDI_OPTIONS.h")
(PID.TID 0000.0001) ># GM_isopycK     :	isopycnal diffusion coefficient (default=GM_background_K)
(PID.TID 0000.0001) ># GM_AdvForm     :	turn on GM Advective form       (default=Skew flux form)
(PID.TID 0000.0001) >
(PID.TID 0000.0001) > &GM_PARM01
(PID.TID 0000.0001) >  GM_background_K    = 1.e+3,
(PID.TID 0000.0001) >  GM_taper_scheme    = 'gkw91',
(PID.TID 0000.0001) >  GM_maxSlope        = 1.e-2,
(PID.TID 0000.0001) >  GM_Kmin_horiz      = 50.,
(PID.TID 0000.0001) >  GM_Scrit           = 4.e-3,
(PID.TID 0000.0001) >  GM_Sd              = 1.e-3,
(PID.TID 0000.0001) ># GM_Visbeck_alpha   = 0.,
(PID.TID 0000.0001) ># GM_Visbeck_length  = 2.e+5,
(PID.TID 0000.0001) ># GM_Visbeck_depth   = 1.e+3,
(PID.TID 0000.0001) ># GM_Visbeck_maxval_K= 2.5e+3,
(PID.TID 0000.0001) > &
(PID.TID 0000.0001) >
(PID.TID 0000.0001) >
(PID.TID 0000.0001) 
(PID.TID 0000.0001)  GM_READPARMS: finished reading data.gmredi
(PID.TID 0000.0001)  PTRACERS_READPARMS: opening data.ptracers
(PID.TID 0000.0001)  OPEN_COPY_DATA_FILE: opening file data.ptracers
(PID.TID 0000.0001) // =======================================================
(PID.TID 0000.0001) // Parameter file "data.ptracers"
(PID.TID 0000.0001) // =======================================================
(PID.TID 0000.0001) ># Age Tracer set-up: No initial file means Age Tracer
(PID.TID 0000.0001) ># is automatically initialized uniformely to zero.
(PID.TID 0000.0001) > &PTRACERS_PARM01
(PID.TID 0000.0001) > PTRACERS_numInUse=1,
(PID.TID 0000.0001) > PTRACERS_advScheme=33,
(PID.TID 0000.0001) > PTRACERS_diffKh=0.E3,
(PID.TID 0000.0001) > PTRACERS_diffKr=3.E-5,
(PID.TID 0000.0001) >#PTRACERS_initialFile='Your_IC_file.bin',
(PID.TID 0000.0001) > PTRACERS_names(1)='Age_tracer',
(PID.TID 0000.0001) > &
(PID.TID 0000.0001) 
(PID.TID 0000.0001)  PTRACERS_READPARMS: finished reading data.ptracers
(PID.TID 0000.0001) // ===================================
(PID.TID 0000.0001) // PTRACERS parameters
(PID.TID 0000.0001) // ===================================
(PID.TID 0000.0001) PTRACERS_numInUse = /* number of tracers */
(PID.TID 0000.0001)                       1
(PID.TID 0000.0001)     ;
(PID.TID 0000.0001) PTRACERS_Iter0 = /* timestep number when tracers are initialized */
(PID.TID 0000.0001)                       0
(PID.TID 0000.0001)     ;
(PID.TID 0000.0001) PTRACERS_dTLev =   /* Ptracer timestep ( s ) */
(PID.TID 0000.0001)    15 @  8.640000000000000E+04              /* K =  1: 15 */
(PID.TID 0000.0001)     ;
(PID.TID 0000.0001) PTRACERS_dumpFreq = /* Frequency^-1 for snapshot output (s) */
(PID.TID 0000.0001)                 8.640000000000000E+05
(PID.TID 0000.0001)     ;
(PID.TID 0000.0001) PTRACERS_taveFreq = /* Frequency^-1 for time-Aver. output (s) */
(PID.TID 0000.0001)                 8.640000000000000E+05
(PID.TID 0000.0001)     ;
(PID.TID 0000.0001) PTRACERS_useRecords = /* all tracers in 1 file */
(PID.TID 0000.0001)                   F
(PID.TID 0000.0001)     ;
(PID.TID 0000.0001) PTRACERS_timeave_mnc = /* use MNC for Tave output */
(PID.TID 0000.0001)                   F
(PID.TID 0000.0001)     ;
(PID.TID 0000.0001) PTRACERS_snapshot_mnc = /* use MNC for snapshot output */
(PID.TID 0000.0001)                   F
(PID.TID 0000.0001)     ;
(PID.TID 0000.0001) PTRACERS_pickup_write_mnc = /* use MNC for writing pickups */
(PID.TID 0000.0001)                   F
(PID.TID 0000.0001)     ;
(PID.TID 0000.0001) PTRACERS_pickup_read_mnc = /* use MNC for reading pickups */
(PID.TID 0000.0001)                   F
(PID.TID 0000.0001)     ;
(PID.TID 0000.0001)  -----------------------------------
(PID.TID 0000.0001)  tracer number :    1
(PID.TID 0000.0001) PTRACERS_ioLabel = /* tracer IO Label */
(PID.TID 0000.0001)               '01'
(PID.TID 0000.0001)     ;
(PID.TID 0000.0001) PTRACERS_advScheme = /* Advection Scheme */
(PID.TID 0000.0001)                      33
(PID.TID 0000.0001)     ;
(PID.TID 0000.0001) PTRACERS_ImplVertAdv = /* implicit vert. advection flag */
(PID.TID 0000.0001)                   F
(PID.TID 0000.0001)     ;
(PID.TID 0000.0001) PTRACERS_diffKh = /* Laplacian Diffusivity */
(PID.TID 0000.0001)                 0.000000000000000E+00
(PID.TID 0000.0001)     ;
(PID.TID 0000.0001) PTRACERS_diffK4 = /* Biharmonic Diffusivity */
(PID.TID 0000.0001)                 0.000000000000000E+00
(PID.TID 0000.0001)     ;
(PID.TID 0000.0001) PTRACERS_diffKrNr = /* Vertical Diffusivity */
(PID.TID 0000.0001)    15 @  3.000000000000000E-05              /* K =  1: 15 */
(PID.TID 0000.0001)     ;
(PID.TID 0000.0001) PTRACERS_useGMRedi = /* apply GM-Redi */
(PID.TID 0000.0001)                   T
(PID.TID 0000.0001)     ;
(PID.TID 0000.0001) PTRACERS_useDWNSLP = /* apply DOWN-SLOPE Flow */
(PID.TID 0000.0001)                   F
(PID.TID 0000.0001)     ;
(PID.TID 0000.0001) PTRACERS_useKPP = /* apply KPP scheme */
(PID.TID 0000.0001)                   F
(PID.TID 0000.0001)     ;
(PID.TID 0000.0001) PTRACERS_ref = /* Reference vertical profile */
(PID.TID 0000.0001)    15 @  0.000000000000000E+00              /* K =  1: 15 */
(PID.TID 0000.0001)     ;
(PID.TID 0000.0001) PTRACERS_EvPrRn =/* tracer conc. in Evap. & Rain */
(PID.TID 0000.0001)                 1.234567000000000E+05
(PID.TID 0000.0001)     ;
(PID.TID 0000.0001)  -----------------------------------
(PID.TID 0000.0001) SET_PARMS: done
(PID.TID 0000.0001) Enter INI_VERTICAL_GRID: setInterFDr=    T ; setCenterDr=    F
(PID.TID 0000.0001) %MON XC_max                       =   3.5800000000000E+02
(PID.TID 0000.0001) %MON XC_min                       =   2.0000000000000E+00
(PID.TID 0000.0001) %MON XC_mean                      =   1.8000000000000E+02
(PID.TID 0000.0001) %MON XC_sd                        =   1.0391663325314E+02
(PID.TID 0000.0001) %MON XG_max                       =   3.5600000000000E+02
(PID.TID 0000.0001) %MON XG_min                       =   0.0000000000000E+00
(PID.TID 0000.0001) %MON XG_mean                      =   1.7800000000000E+02
(PID.TID 0000.0001) %MON XG_sd                        =   1.0391663325314E+02
(PID.TID 0000.0001) %MON DXC_max                      =   4.4443898815675E+05
(PID.TID 0000.0001) %MON DXC_min                      =   9.2460385861875E+04
(PID.TID 0000.0001) %MON DXC_mean                     =   3.1372497618153E+05
(PID.TID 0000.0001) %MON DXC_sd                       =   1.1216447457560E+05
(PID.TID 0000.0001) %MON DXF_max                      =   4.4443898815675E+05
(PID.TID 0000.0001) %MON DXF_min                      =   9.2460385861875E+04
(PID.TID 0000.0001) %MON DXF_mean                     =   3.1372497618153E+05
(PID.TID 0000.0001) %MON DXF_sd                       =   1.1216447457560E+05
(PID.TID 0000.0001) %MON DXG_max                      =   4.4470989340816E+05
(PID.TID 0000.0001) %MON DXG_min                      =   7.7223062580781E+04
(PID.TID 0000.0001) %MON DXG_mean                     =   3.1353386340261E+05
(PID.TID 0000.0001) %MON DXG_sd                       =   1.1256651772502E+05
(PID.TID 0000.0001) %MON DXV_max                      =   4.4470989340816E+05
(PID.TID 0000.0001) %MON DXV_min                      =   7.7223062580781E+04
(PID.TID 0000.0001) %MON DXV_mean                     =   3.1353386340261E+05
(PID.TID 0000.0001) %MON DXV_sd                       =   1.1256651772502E+05
(PID.TID 0000.0001) %MON YC_max                       =   7.8000000000000E+01
(PID.TID 0000.0001) %MON YC_min                       =  -7.8000000000000E+01
(PID.TID 0000.0001) %MON YC_mean                      =   0.0000000000000E+00
(PID.TID 0000.0001) %MON YC_sd                        =   4.6173585522461E+01
(PID.TID 0000.0001) %MON YG_max                       =   7.6000000000000E+01
(PID.TID 0000.0001) %MON YG_min                       =  -8.0000000000000E+01
(PID.TID 0000.0001) %MON YG_mean                      =  -2.0000000000000E+00
(PID.TID 0000.0001) %MON YG_sd                        =   4.6173585522461E+01
(PID.TID 0000.0001) %MON DYC_max                      =   4.4470989340816E+05
(PID.TID 0000.0001) %MON DYC_min                      =   4.4470989340816E+05
(PID.TID 0000.0001) %MON DYC_mean                     =   4.4470989340817E+05
(PID.TID 0000.0001) %MON DYC_sd                       =   1.4668330550194E-08
(PID.TID 0000.0001) %MON DYF_max                      =   4.4470989340816E+05
(PID.TID 0000.0001) %MON DYF_min                      =   4.4470989340816E+05
(PID.TID 0000.0001) %MON DYF_mean                     =   4.4470989340817E+05
(PID.TID 0000.0001) %MON DYF_sd                       =   1.4668330550194E-08
(PID.TID 0000.0001) %MON DYG_max                      =   4.4470989340816E+05
(PID.TID 0000.0001) %MON DYG_min                      =   4.4470989340816E+05
(PID.TID 0000.0001) %MON DYG_mean                     =   4.4470989340817E+05
(PID.TID 0000.0001) %MON DYG_sd                       =   1.4668330550194E-08
(PID.TID 0000.0001) %MON DYU_max                      =   4.4470989340816E+05
(PID.TID 0000.0001) %MON DYU_min                      =   4.4470989340816E+05
(PID.TID 0000.0001) %MON DYU_mean                     =   4.4470989340817E+05
(PID.TID 0000.0001) %MON DYU_sd                       =   1.4668330550194E-08
(PID.TID 0000.0001) %MON RA_max                       =   1.9760627980089E+11
(PID.TID 0000.0001) %MON RA_min                       =   4.1109698667290E+10
(PID.TID 0000.0001) %MON RA_mean                      =   1.3948826965196E+11
(PID.TID 0000.0001) %MON RA_sd                        =   4.9870522472902E+10
(PID.TID 0000.0001) %MON RAW_max                      =   1.9760627980089E+11
(PID.TID 0000.0001) %MON RAW_min                      =   4.1109698667290E+10
(PID.TID 0000.0001) %MON RAW_mean                     =   1.3948826965196E+11
(PID.TID 0000.0001) %MON RAW_sd                       =   4.9870522472902E+10
(PID.TID 0000.0001) %MON RAS_max                      =   1.9772672958215E+11
(PID.TID 0000.0001) %MON RAS_min                      =   3.4334886267983E+10
(PID.TID 0000.0001) %MON RAS_mean                     =   1.3940329716694E+11
(PID.TID 0000.0001) %MON RAS_sd                       =   5.0049278732353E+10
(PID.TID 0000.0001) %MON RAZ_max                      =   1.9772672958215E+11
(PID.TID 0000.0001) %MON RAZ_min                      =   3.4334886267983E+10
(PID.TID 0000.0001) %MON RAZ_mean                     =   1.3940329716694E+11
(PID.TID 0000.0001) %MON RAZ_sd                       =   5.0049278732353E+10
(PID.TID 0000.0001) %MON AngleCS_max                  =   1.0000000000000E+00
(PID.TID 0000.0001) %MON AngleCS_min                  =   1.0000000000000E+00
(PID.TID 0000.0001) %MON AngleCS_mean                 =   1.0000000000000E+00
(PID.TID 0000.0001) %MON AngleCS_sd                   =   0.0000000000000E+00
(PID.TID 0000.0001) %MON AngleSN_max                  =   0.0000000000000E+00
(PID.TID 0000.0001) %MON AngleSN_min                  =   0.0000000000000E+00
(PID.TID 0000.0001) %MON AngleSN_mean                 =   0.0000000000000E+00
(PID.TID 0000.0001) %MON AngleSN_sd                   =   0.0000000000000E+00
(PID.TID 0000.0001)  MDS_READ_FIELD: opening global file: bathymetry.bin
(PID.TID 0000.0001) // =======================================================
(PID.TID 0000.0001) // Field Model R_low (ini_masks_etc) at iteration          1
(PID.TID 0000.0001) // CMIN =         -5.200000000000000E+03
(PID.TID 0000.0001) // CMAX =         -1.200000000000000E+02
(PID.TID 0000.0001) // CINT =          1.881481481481482E+02
(PID.TID 0000.0001) // SYMBOLS (CMIN->CMAX): -abcdefghijklmnopqrstuvwxyz+
(PID.TID 0000.0001) //                  0.0: .
(PID.TID 0000.0001) // RANGE I (Lo:Hi:Step):(  -1:  92:   1)
(PID.TID 0000.0001) // RANGE J (Lo:Hi:Step):(  42:  -1:  -1)
(PID.TID 0000.0001) // RANGE K (Lo:Hi:Step):(   1:   1:   1)
(PID.TID 0000.0001) // =======================================================
(PID.TID 0000.0001) K =   1
(PID.TID 0000.0001) //                I=8       I=18      I=28      I=38      I=44      I=54      I=64      I=74      I=84
(PID.TID 0000.0001) // |--J--|101234567|901234567|901234567|901234567|901234567|567890123|567890123|567890123|567890123|56789012
(PID.TID 0000.0001) //     42 ............................................zyxxmyxxmgfeeefefgimnpwwwy..+zyy.....yyyyoiiihhz+.....
(PID.TID 0000.0001) //     41 ..................................................................................................
(PID.TID 0000.0001) //     40 qlloqz+.++++zzz++++++......................................................................+++qllo
(PID.TID 0000.0001) //     39 slloorzzzzzzzzz+...++.........................................................yxxz........+zvusllo
(PID.TID 0000.0001) //     38 mqpporzzzzzz+++...............................................................zxxy+......zyyvsmqpp
(PID.TID 0000.0001) //     37 mmmuz......................................................................++...zy+...yttyy.+smmmu
(PID.TID 0000.0001) //     36 utt+.........................................mm++mm++....................+++++++znmm.yoowssvuyutt+
(PID.TID 0000.0001) //     35 ++++.................................+zzz..rrmmkkmmkk+...+gghn...........+++....+nmiijlsoopuww++++
(PID.TID 0000.0001) //     34 .....................................+vvy.ggqyxv+yxv+y.ccdffhim..................+nihhikkihhm+....
(PID.TID 0000.0001) //     33 +.....................................uuz---h----------aaabdefin+.................zqvddflifffw+...
(PID.TID 0000.0001) //     32 +.....................................+t----h-------------acdfgnn................+++gdffkofffm+...
(PID.TID 0000.0001) //     31 ......................................-----ad------------abddegil..............qbaafccdhqqgddm....
(PID.TID 0000.0001) //     30 .....................................f----b--b---b------------abd............zfbb--fbcdosjfddi....
(PID.TID 0000.0001) //     29 ...................................tu----e---fjg-fjg----------abdf...........eaac--abfmijaadgi....
(PID.TID 0000.0001) //     28 .................................+xfl-----------------------bdedefi.........qbaa---aemfbbaaejz....
(PID.TID 0000.0001) //     27 ................xx..............+wfgfpf--------ea--eallc---bbbccefgi...+++x.qb-----akfa---ah......
(PID.TID 0000.0001) //     26 ................xnn...........+vd---dna------a--aa--aicfna---aabdfghku.++xssuy-----bgca---ci......
(PID.TID 0000.0001) //     25 ................iiik...oo+...+ivd---doaa-bc--ilglilglf--aa---aabcghhkll...ssum+xaaacjbaabdjk......
(PID.TID 0000.0001) //     24 ..............xnheeft.kkk+...uii.aagdm----aa---------a-------bbbcdefjljjju.zummwwbbchba--abi......
(PID.TID 0000.0001) //     23 ..............xgheefp.iikw...uuw..fihi----fed---------eaaa--bbbbcdfflkjiiiq....zykccefa--abd......
(PID.TID 0000.0001) //     22 uss...........bbelffslffkk...zz.wqkeeqoheccdfa---a-----egabaabcdddegghliiiqq......xeeehheehccquss.
(PID.TID 0000.0001) //     21 bbeir........nbbcdjhqdddiiz.....wqfeelgghmedea---a-----bibbcddddddefghklnqoo........ieeflhgcccbbei
(PID.TID 0000.0001) //     20 bbder.......ldcccdgkccccidd......z.vkkktqqhegg---g----aaacddddddddefghkiiijl.........nhfa--gfcbbde
(PID.TID 0000.0001) //     19 cdaaf.......kddosggpaaaibbccx...+z+.....r+nlec---c---agaaabcddccddefikfgffff...........d---cjhcdaa
(PID.TID 0000.0001) //     18 d---d.......kglggvliaaaibbcaaeaiv++...qqzolhecccfcccfdgkaabcdfccdeeikgfgffdd+..........d---djhd---
(PID.TID 0000.0001) //     17 c---c.......l.feewlfaaaoaa----aiv.....qqnllslmlofmlofcdbaacceffffhhligfigeddj.........hd---ckhc---
(PID.TID 0000.0001) //     16 ba--c......tn.ddgnlfdaaqa-----lv.......vnllvllnwvlnwv--accivomfffhilhgfffeddjf........re--aeigba--
(PID.TID 0000.0001) //     15 b--dpz....+ll.ccdfhmdddlc----av.........otsxoomv-omv---abccddfihgijkhgfffeejfff......+fd---ckfb--d
(PID.TID 0000.0001) //     14 c--mcl....weeqbaafilkfend--eagy.........hhstofft-fft----aacdheefijkmjhhjijiffff.....zlfdaaadlfc--m
(PID.TID 0000.0001) //     13 cclbbg....nccobaaiddgkffqrqeaal.........eeutqfft-fft------aaceeffhijlkjhhigfffq....+jgfodccflhcclb
(PID.TID 0000.0001) //     12 hgaaacw+iiicclemhdddfliigfdcaabfaaaz....ccsurqpc-qpc--------abcifffikiiihhggff.....kbbbdfffglhhgaa
(PID.TID 0000.0001) //     11 gcaaacbbifccennhbbdefnihgfdccaaaa----..dcccnt.nca.ncab-------aabcdfilhggjiggff....l---abcefjlkgcaa
(PID.TID 0000.0001) //     10 fcaaccbdaacfrllfbbdegkmmljhfdddba----d.dcccfx.nyr.nyrebaba----abcdgilhfeegijgi..+w--aa-abcfilkfcaa
(PID.TID 0000.0001) //      9 ffcdcccaaaoqsolfdeehikihhlllgfedcccccdmdcccf.vyfavyfaaaaaaaa--abdehmjhfeeefglv.++w-----abcdfklffcd
(PID.TID 0000.0001) //      8 iffjklcaafddffeeccvznkfffhhhlkjifgjkkfeeddfsyvcaavcaaaaaaccdcccdfgjligedbbceg+.++xffn--cfddefliffj
(PID.TID 0000.0001) //      7 mqnnbbkkf--bmbaabbgtykfddeffeeddccdfhlffeelfbaaaaaaaaaacddeghgjgjlligeddaaabedfiiiiiisvkfkecchmqnn
(PID.TID 0000.0001) //      6 ca-------------aabcelttdddedddddccccdfkkiiffbaaaaaaaabcdgimmkmefecaaabbbaaabbdfiiiiispmmregifcca--
(PID.TID 0000.0001) //      5 -------a-------aaccehhhiddeddddddcccdfiikomodddefddefffmlmigedccaaaaaaaababbbdfiijsqgeccccbaa-----
(PID.TID 0000.0001) //      4 -ahebaabbbbbeihffgijiiiijpywnnpokkomkiiijmmmolkomlkommmgffeeedccaaaaaabbcccefhmz..yjgeccccbaa--ahe
(PID.TID 0000.0001) //      3 ffhhrpjiiwyy............................yxotmjjjjjjjjgfeeeeeeddeffffheddeghjkyy..yqjgeddccdbbgffhh
(PID.TID 0000.0001) //      2 ............................................zyxxmyxxmgfeeefefgimnpwwwy..+zyy.....yyyyoiiihhz+.....
(PID.TID 0000.0001) //      1 ..................................................................................................
(PID.TID 0000.0001) //      0 qlloqz+.++++zzz++++++......................................................................+++qllo
(PID.TID 0000.0001) //     -1 slloorzzzzzzzzz+...++.........................................................yxxz........+zvusllo
(PID.TID 0000.0001) // =======================================================
(PID.TID 0000.0001) // END OF FIELD                                          =
(PID.TID 0000.0001) // =======================================================
(PID.TID 0000.0001) 
(PID.TID 0000.0001) // =======================================================
(PID.TID 0000.0001) // Field Model Ro_surf (ini_masks_etc) at iteration          1
(PID.TID 0000.0001) // CMIN =          1.000000000000000E+32
(PID.TID 0000.0001) // CMAX =         -1.000000000000000E+32
(PID.TID 0000.0001) // CINT =          0.000000000000000E+00
(PID.TID 0000.0001) // SYMBOLS (CMIN->CMAX): -abcdefghijklmnopqrstuvwxyz+
(PID.TID 0000.0001) //                  0.0: .
(PID.TID 0000.0001) // RANGE I (Lo:Hi:Step):(  -1:  92:   1)
(PID.TID 0000.0001) // RANGE J (Lo:Hi:Step):(  42:  -1:  -1)
(PID.TID 0000.0001) // RANGE K (Lo:Hi:Step):(   1:   1:   1)
(PID.TID 0000.0001) // =======================================================
(PID.TID 0000.0001) // =======================================================
(PID.TID 0000.0001) // END OF FIELD                                          =
(PID.TID 0000.0001) // =======================================================
(PID.TID 0000.0001) 
(PID.TID 0000.0001) // =======================================================
(PID.TID 0000.0001) // Field hFacC at iteration          1
(PID.TID 0000.0001) // CMIN =          1.000000000000000E+00
(PID.TID 0000.0001) // CMAX =          1.000000000000000E+00
(PID.TID 0000.0001) // CINT =          0.000000000000000E+00
(PID.TID 0000.0001) // SYMBOLS (CMIN->CMAX): -abcdefghijklmnopqrstuvwxyz+
(PID.TID 0000.0001) //                  0.0: .
(PID.TID 0000.0001) // RANGE I (Lo:Hi:Step):(  -1:  92:   1)
(PID.TID 0000.0001) // RANGE J (Lo:Hi:Step):(  42:  -1:  -1)
(PID.TID 0000.0001) // RANGE K (Lo:Hi:Step):(   1:   1:   1)
(PID.TID 0000.0001) // =======================================================
(PID.TID 0000.0001) // =======================================================
(PID.TID 0000.0001) // END OF FIELD                                          =
(PID.TID 0000.0001) // =======================================================
(PID.TID 0000.0001) 
(PID.TID 0000.0001) // =======================================================
(PID.TID 0000.0001) // Field hFacW at iteration          1
(PID.TID 0000.0001) // CMIN =          1.000000000000000E+00
(PID.TID 0000.0001) // CMAX =          1.000000000000000E+00
(PID.TID 0000.0001) // CINT =          0.000000000000000E+00
(PID.TID 0000.0001) // SYMBOLS (CMIN->CMAX): -abcdefghijklmnopqrstuvwxyz+
(PID.TID 0000.0001) //                  0.0: .
(PID.TID 0000.0001) // RANGE I (Lo:Hi:Step):(  -1:  92:   1)
(PID.TID 0000.0001) // RANGE J (Lo:Hi:Step):(  42:  -1:  -1)
(PID.TID 0000.0001) // RANGE K (Lo:Hi:Step):(   1:   1:   1)
(PID.TID 0000.0001) // =======================================================
(PID.TID 0000.0001) // =======================================================
(PID.TID 0000.0001) // END OF FIELD                                          =
(PID.TID 0000.0001) // =======================================================
(PID.TID 0000.0001) 
(PID.TID 0000.0001) // =======================================================
(PID.TID 0000.0001) // Field hFacS at iteration          1
(PID.TID 0000.0001) // CMIN =          1.000000000000000E+00
(PID.TID 0000.0001) // CMAX =          1.000000000000000E+00
(PID.TID 0000.0001) // CINT =          0.000000000000000E+00
(PID.TID 0000.0001) // SYMBOLS (CMIN->CMAX): -abcdefghijklmnopqrstuvwxyz+
(PID.TID 0000.0001) //                  0.0: .
(PID.TID 0000.0001) // RANGE I (Lo:Hi:Step):(  -1:  92:   1)
(PID.TID 0000.0001) // RANGE J (Lo:Hi:Step):(  42:  -1:  -1)
(PID.TID 0000.0001) // RANGE K (Lo:Hi:Step):(   1:   1:   1)
(PID.TID 0000.0001) // =======================================================
(PID.TID 0000.0001) // =======================================================
(PID.TID 0000.0001) // END OF FIELD                                          =
(PID.TID 0000.0001) // =======================================================
(PID.TID 0000.0001) 
(PID.TID 0000.0001) 
(PID.TID 0000.0001) // ===================================
(PID.TID 0000.0001) // GAD parameters :
(PID.TID 0000.0001) // ===================================
(PID.TID 0000.0001) tempAdvScheme =   /* Temp. Horiz.Advection scheme selector */
(PID.TID 0000.0001)                       2
(PID.TID 0000.0001)     ;
(PID.TID 0000.0001) tempVertAdvScheme =   /* Temp. Vert. Advection scheme selector */
(PID.TID 0000.0001)                       2
(PID.TID 0000.0001)     ;
(PID.TID 0000.0001) tempMultiDimAdvec =   /* use Muti-Dim Advec method for Temp */
(PID.TID 0000.0001)                   F
(PID.TID 0000.0001)     ;
(PID.TID 0000.0001) tempSOM_Advection = /* use 2nd Order Moment Advection for Temp */
(PID.TID 0000.0001)                   F
(PID.TID 0000.0001)     ;
(PID.TID 0000.0001) AdamsBashforthGt = /* apply Adams-Bashforth extrapolation on Gt */
(PID.TID 0000.0001)                   T
(PID.TID 0000.0001)     ;
(PID.TID 0000.0001) AdamsBashforth_T = /* apply Adams-Bashforth extrapolation on Temp */
(PID.TID 0000.0001)                   F
(PID.TID 0000.0001)     ;
(PID.TID 0000.0001) saltAdvScheme =   /* Salt. Horiz.advection scheme selector */
(PID.TID 0000.0001)                       2
(PID.TID 0000.0001)     ;
(PID.TID 0000.0001) saltVertAdvScheme =   /* Salt. Vert. Advection scheme selector */
(PID.TID 0000.0001)                       2
(PID.TID 0000.0001)     ;
(PID.TID 0000.0001) saltMultiDimAdvec =   /* use Muti-Dim Advec method for Salt */
(PID.TID 0000.0001)                   F
(PID.TID 0000.0001)     ;
(PID.TID 0000.0001) saltSOM_Advection = /* use 2nd Order Moment Advection for Salt */
(PID.TID 0000.0001)                   F
(PID.TID 0000.0001)     ;
(PID.TID 0000.0001) AdamsBashforthGs = /* apply Adams-Bashforth extrapolation on Gs */
(PID.TID 0000.0001)                   T
(PID.TID 0000.0001)     ;
(PID.TID 0000.0001) AdamsBashforth_S = /* apply Adams-Bashforth extrapolation on Salt */
(PID.TID 0000.0001)                   F
(PID.TID 0000.0001)     ;
(PID.TID 0000.0001) // ===================================
(PID.TID 0000.0001) PTRACERS_INIT_FIXED: PTRACERS_SOM_Advection(   1) =     F
(PID.TID 0000.0001) %MON fCori_max                    =   1.4265546244797E-04
(PID.TID 0000.0001) %MON fCori_min                    =  -1.4265546244797E-04
(PID.TID 0000.0001) %MON fCori_mean                   =  -1.5058363506743E-21
(PID.TID 0000.0001) %MON fCori_sd                     =   9.6599226301546E-05
(PID.TID 0000.0001) %MON fCoriG_max                   =   1.4151032568025E-04
(PID.TID 0000.0001) %MON fCoriG_min                   =  -1.4362679550910E-04
(PID.TID 0000.0001) %MON fCoriG_mean                  =  -3.5906698877274E-06
(PID.TID 0000.0001) %MON fCoriG_sd                    =   9.6548915696246E-05
(PID.TID 0000.0001) %MON fCoriCos_max                 =   1.4575362704741E-04
(PID.TID 0000.0001) %MON fCoriCos_min                 =   3.0322354601388E-05
(PID.TID 0000.0001) %MON fCoriCos_mean                =   1.0288600773632E-04
(PID.TID 0000.0001) %MON fCoriCos_sd                  =   3.6784304327266E-05
(PID.TID 0000.0001) INI_CG2D: CG2D normalisation factor =  6.5682677425711703E-05
(PID.TID 0000.0001) 
(PID.TID 0000.0001) // =======================================================
(PID.TID 0000.0001) // Model configuration
(PID.TID 0000.0001) // =======================================================
(PID.TID 0000.0001) //
(PID.TID 0000.0001) // "Physical" paramters ( PARM01 in namelist )
(PID.TID 0000.0001) //
(PID.TID 0000.0001) buoyancyRelation = /* Type of relation to get Buoyancy */
(PID.TID 0000.0001)               'OCEANIC'
(PID.TID 0000.0001)     ;
(PID.TID 0000.0001) fluidIsAir  =  /* fluid major constituent is Air */
(PID.TID 0000.0001)                   F
(PID.TID 0000.0001)     ;
(PID.TID 0000.0001) fluidIsWater=  /* fluid major constituent is Water */
(PID.TID 0000.0001)                   T
(PID.TID 0000.0001)     ;
(PID.TID 0000.0001) usingPCoords =  /* use p (or p*) vertical coordinate */
(PID.TID 0000.0001)                   F
(PID.TID 0000.0001)     ;
(PID.TID 0000.0001) usingZCoords =  /* use z (or z*) vertical coordinate */
(PID.TID 0000.0001)                   T
(PID.TID 0000.0001)     ;
(PID.TID 0000.0001) tRef =   /* Reference temperature profile ( oC or K ) */
(PID.TID 0000.0001)    15 @  2.000000000000000E+01              /* K =  1: 15 */
(PID.TID 0000.0001)     ;
(PID.TID 0000.0001) sRef =   /* Reference salinity profile ( psu ) */
(PID.TID 0000.0001)    15 @  3.500000000000000E+01              /* K =  1: 15 */
(PID.TID 0000.0001)     ;
(PID.TID 0000.0001) viscAh =   /* Lateral eddy viscosity ( m^2/s ) */
(PID.TID 0000.0001)                 5.000000000000000E+05
(PID.TID 0000.0001)     ;
(PID.TID 0000.0001) viscAhMax =   /* Maximum lateral eddy viscosity ( m^2/s ) */
(PID.TID 0000.0001)                 1.000000000000000E+21
(PID.TID 0000.0001)     ;
(PID.TID 0000.0001) viscAhGrid =   /* Grid dependent lateral eddy viscosity ( non-dim. ) */
(PID.TID 0000.0001)                 0.000000000000000E+00
(PID.TID 0000.0001)     ;
(PID.TID 0000.0001) useFullLeith =   /* Use Full Form of Leith Viscosity on/off flag*/
(PID.TID 0000.0001)                   F
(PID.TID 0000.0001)     ;
(PID.TID 0000.0001) useStrainTensionVisc =   /* Use StrainTension Form of Viscous Operator on/off flag*/
(PID.TID 0000.0001)                   F
(PID.TID 0000.0001)     ;
(PID.TID 0000.0001) useAreaViscLength =   /* Use area for visc length instead of geom. mean*/
(PID.TID 0000.0001)                   F
(PID.TID 0000.0001)     ;
(PID.TID 0000.0001) viscC2leith = /* Leith harmonic visc. factor (on grad(vort),non-dim.) */
(PID.TID 0000.0001)                 0.000000000000000E+00
(PID.TID 0000.0001)     ;
(PID.TID 0000.0001) viscC2leithD = /* Leith harmonic viscosity factor (on grad(div),non-dim.) */
(PID.TID 0000.0001)                 0.000000000000000E+00
(PID.TID 0000.0001)     ;
(PID.TID 0000.0001) viscC2smag =   /* Smagorinsky harmonic viscosity factor (non-dim.) */
(PID.TID 0000.0001)                 0.000000000000000E+00
(PID.TID 0000.0001)     ;
(PID.TID 0000.0001) viscA4 =   /* Lateral biharmonic viscosity ( m^4/s ) */
(PID.TID 0000.0001)                 0.000000000000000E+00
(PID.TID 0000.0001)     ;
(PID.TID 0000.0001) viscA4Max =   /* Maximum biharmonic viscosity ( m^2/s ) */
(PID.TID 0000.0001)                 1.000000000000000E+21
(PID.TID 0000.0001)     ;
(PID.TID 0000.0001) viscA4Grid =   /* Grid dependent biharmonic viscosity ( non-dim. ) */
(PID.TID 0000.0001)                 0.000000000000000E+00
(PID.TID 0000.0001)     ;
(PID.TID 0000.0001) viscC4leith = /* Leith biharm viscosity factor (on grad(vort), non-dim.) */
(PID.TID 0000.0001)                 0.000000000000000E+00
(PID.TID 0000.0001)     ;
(PID.TID 0000.0001) viscC4leithD = /* Leith biharm viscosity factor (on grad(div), non-dim.) */
(PID.TID 0000.0001)                 0.000000000000000E+00
(PID.TID 0000.0001)     ;
(PID.TID 0000.0001) viscC4Smag = /* Smagorinsky biharm viscosity factor (non-dim) */
(PID.TID 0000.0001)                 0.000000000000000E+00
(PID.TID 0000.0001)     ;
(PID.TID 0000.0001) no_slip_sides =  /* Viscous BCs: No-slip sides */
(PID.TID 0000.0001)                   T
(PID.TID 0000.0001)     ;
(PID.TID 0000.0001) sideDragFactor = /* side-drag scaling factor (non-dim) */
(PID.TID 0000.0001)                 2.000000000000000E+00
(PID.TID 0000.0001)     ;
(PID.TID 0000.0001) viscArNr = /* vertical profile of vertical viscosity ( m^2/s )*/
(PID.TID 0000.0001)    15 @  1.000000000000000E-03              /* K =  1: 15 */
(PID.TID 0000.0001)     ;
(PID.TID 0000.0001) no_slip_bottom =  /* Viscous BCs: No-slip bottom */
(PID.TID 0000.0001)                   T
(PID.TID 0000.0001)     ;
(PID.TID 0000.0001) bottomDragLinear = /* linear bottom-drag coefficient ( m/s ) */
(PID.TID 0000.0001)                 0.000000000000000E+00
(PID.TID 0000.0001)     ;
(PID.TID 0000.0001) bottomDragQuadratic = /* quadratic bottom-drag coefficient (-) */
(PID.TID 0000.0001)                 0.000000000000000E+00
(PID.TID 0000.0001)     ;
(PID.TID 0000.0001) diffKhT =   /* Laplacian diffusion of heat laterally ( m^2/s ) */
(PID.TID 0000.0001)                 0.000000000000000E+00
(PID.TID 0000.0001)     ;
(PID.TID 0000.0001) diffK4T =   /* Biharmonic diffusion of heat laterally ( m^4/s ) */
(PID.TID 0000.0001)                 0.000000000000000E+00
(PID.TID 0000.0001)     ;
(PID.TID 0000.0001) diffKhS =   /* Laplacian diffusion of salt laterally ( m^2/s ) */
(PID.TID 0000.0001)                 0.000000000000000E+00
(PID.TID 0000.0001)     ;
(PID.TID 0000.0001) diffK4S =   /* Biharmonic diffusion of salt laterally ( m^4/s ) */
(PID.TID 0000.0001)                 0.000000000000000E+00
(PID.TID 0000.0001)     ;
(PID.TID 0000.0001) diffKrNrT = /* vertical profile of vertical diffusion of Temp ( m^2/s )*/
(PID.TID 0000.0001)    15 @  3.000000000000000E-05              /* K =  1: 15 */
(PID.TID 0000.0001)     ;
(PID.TID 0000.0001) diffKrNrS = /* vertical profile of vertical diffusion of Salt ( m^2/s )*/
(PID.TID 0000.0001)    15 @  3.000000000000000E-05              /* K =  1: 15 */
(PID.TID 0000.0001)     ;
(PID.TID 0000.0001) diffKrBL79surf = /* Surface diffusion for Bryan and Lewis 79 ( m^2/s ) */
(PID.TID 0000.0001)                 0.000000000000000E+00
(PID.TID 0000.0001)     ;
(PID.TID 0000.0001) diffKrBL79deep = /* Deep diffusion for Bryan and Lewis 1979 ( m^2/s ) */
(PID.TID 0000.0001)                 0.000000000000000E+00
(PID.TID 0000.0001)     ;
(PID.TID 0000.0001) diffKrBL79scl = /* Depth scale for Bryan and Lewis 1979 ( m ) */
(PID.TID 0000.0001)                 2.000000000000000E+02
(PID.TID 0000.0001)     ;
(PID.TID 0000.0001) diffKrBL79Ho = /* Turning depth for Bryan and Lewis 1979 ( m ) */
(PID.TID 0000.0001)                -2.000000000000000E+03
(PID.TID 0000.0001)     ;
(PID.TID 0000.0001) ivdc_kappa = /* Implicit Vertical Diffusivity for Convection ( m^2/s ) */
(PID.TID 0000.0001)                 1.000000000000000E+02
(PID.TID 0000.0001)     ;
(PID.TID 0000.0001) hMixCriteria=  /* Criteria for mixed-layer diagnostic */
(PID.TID 0000.0001)                -8.000000000000000E-01
(PID.TID 0000.0001)     ;
(PID.TID 0000.0001) dRhoSmall=  /* Parameter for mixed-layer diagnostic */
(PID.TID 0000.0001)                 1.000000000000000E-06
(PID.TID 0000.0001)     ;
(PID.TID 0000.0001) hMixSmooth=  /* Smoothing parameter for mixed-layer diagnostic */
(PID.TID 0000.0001)                 0.000000000000000E+00
(PID.TID 0000.0001)     ;
(PID.TID 0000.0001) eosType =  /* Type of Equation of State */
(PID.TID 0000.0001)               'JMD95Z'
(PID.TID 0000.0001)     ;
(PID.TID 0000.0001) tAlpha =   /* Linear EOS thermal expansion coefficient ( 1/oC ) */
(PID.TID 0000.0001)                 1.234567000000000E+05
(PID.TID 0000.0001)     ;
(PID.TID 0000.0001) sBeta =   /* Linear EOS haline contraction coefficient ( 1/psu ) */
(PID.TID 0000.0001)                 1.234567000000000E+05
(PID.TID 0000.0001)     ;
(PID.TID 0000.0001) rhonil =   /* Reference density ( kg/m^3 ) */
(PID.TID 0000.0001)                 1.035000000000000E+03
(PID.TID 0000.0001)     ;
(PID.TID 0000.0001) rhoConst =   /* Reference density ( kg/m^3 ) */
(PID.TID 0000.0001)                 1.035000000000000E+03
(PID.TID 0000.0001)     ;
(PID.TID 0000.0001) rhoFacC = /* normalized Reference density @ cell-Center (-) */
(PID.TID 0000.0001)    15 @  1.000000000000000E+00              /* K =  1: 15 */
(PID.TID 0000.0001)     ;
(PID.TID 0000.0001) rhoFacF = /* normalized Reference density @ W-Interface (-) */
(PID.TID 0000.0001)    16 @  1.000000000000000E+00              /* K =  1: 16 */
(PID.TID 0000.0001)     ;
(PID.TID 0000.0001) rhoConstFresh =   /* Reference density ( kg/m^3 ) */
(PID.TID 0000.0001)                 1.000000000000000E+03
(PID.TID 0000.0001)     ;
(PID.TID 0000.0001) gravity =   /* Gravitational acceleration ( m/s^2 ) */
(PID.TID 0000.0001)                 9.810000000000000E+00
(PID.TID 0000.0001)     ;
(PID.TID 0000.0001) gBaro =   /* Barotropic gravity ( m/s^2 ) */
(PID.TID 0000.0001)                 9.810000000000000E+00
(PID.TID 0000.0001)     ;
(PID.TID 0000.0001) rotationPeriod =   /* Rotation Period ( s ) */
(PID.TID 0000.0001)                 8.616400000000000E+04
(PID.TID 0000.0001)     ;
(PID.TID 0000.0001) omega =   /* Angular velocity ( rad/s ) */
(PID.TID 0000.0001)                 7.292123516990375E-05
(PID.TID 0000.0001)     ;
(PID.TID 0000.0001) f0 =   /* Reference coriolis parameter ( 1/s ) */
(PID.TID 0000.0001)                 1.000000000000000E-04
(PID.TID 0000.0001)     ;
(PID.TID 0000.0001) beta =   /* Beta ( 1/(m.s) ) */
(PID.TID 0000.0001)                 9.999999999999999E-12
(PID.TID 0000.0001)     ;
(PID.TID 0000.0001) freeSurfFac =   /* Implicit free surface factor */
(PID.TID 0000.0001)                 1.000000000000000E+00
(PID.TID 0000.0001)     ;
(PID.TID 0000.0001) implicitFreeSurface =   /* Implicit free surface on/off flag */
(PID.TID 0000.0001)                   T
(PID.TID 0000.0001)     ;
(PID.TID 0000.0001) rigidLid =   /* Rigid lid on/off flag */
(PID.TID 0000.0001)                   F
(PID.TID 0000.0001)     ;
(PID.TID 0000.0001) implicSurfPress =   /* Surface Pressure implicit factor (0-1)*/
(PID.TID 0000.0001)                 1.000000000000000E+00
(PID.TID 0000.0001)     ;
(PID.TID 0000.0001) implicDiv2Dflow =   /* Barot. Flow Div. implicit factor (0-1)*/
(PID.TID 0000.0001)                 1.000000000000000E+00
(PID.TID 0000.0001)     ;
(PID.TID 0000.0001) exactConserv =   /* Exact Volume Conservation on/off flag*/
(PID.TID 0000.0001)                   T
(PID.TID 0000.0001)     ;
(PID.TID 0000.0001) linFSConserveTr =   /* Tracer correction for Lin Free Surface on/off flag*/
(PID.TID 0000.0001)                   F
(PID.TID 0000.0001)     ;
(PID.TID 0000.0001) uniformLin_PhiSurf =   /* use uniform Bo_surf on/off flag*/
(PID.TID 0000.0001)                   T
(PID.TID 0000.0001)     ;
(PID.TID 0000.0001) nonlinFreeSurf =   /* Non-linear Free Surf. options (-1,0,1,2,3)*/
(PID.TID 0000.0001)                       0
(PID.TID 0000.0001)     ;
(PID.TID 0000.0001)      -1,0= Off ; 1,2,3= On, 2=+rescale gU,gV, 3=+update cg2d solv.
(PID.TID 0000.0001) hFacInf =   /* lower threshold for hFac (nonlinFreeSurf only)*/
(PID.TID 0000.0001)                 2.000000000000000E-01
(PID.TID 0000.0001)     ;
(PID.TID 0000.0001) hFacSup =   /* upper threshold for hFac (nonlinFreeSurf only)*/
(PID.TID 0000.0001)                 2.000000000000000E+00
(PID.TID 0000.0001)     ;
(PID.TID 0000.0001) select_rStar = /* r* Vertical coord. options (=0 r coord.; > 0 uses r*) */
(PID.TID 0000.0001)                       0
(PID.TID 0000.0001)     ;
(PID.TID 0000.0001) selectAddFluid = /* option for mass source/sink of fluid (=0: off) */
(PID.TID 0000.0001)                       0
(PID.TID 0000.0001)     ;
(PID.TID 0000.0001) useRealFreshWaterFlux = /* Real Fresh Water Flux on/off flag*/
(PID.TID 0000.0001)                   T
(PID.TID 0000.0001)     ;
(PID.TID 0000.0001) temp_EvPrRn = /* Temp. of Evap/Prec/R (UNSET=use local T)(oC)*/
(PID.TID 0000.0001)                 1.234567000000000E+05
(PID.TID 0000.0001)     ;
(PID.TID 0000.0001) salt_EvPrRn = /* Salin. of Evap/Prec/R (UNSET=use local S)(ppt)*/
(PID.TID 0000.0001)                 0.000000000000000E+00
(PID.TID 0000.0001)     ;
(PID.TID 0000.0001) convertFW2Salt = /* convert F.W. Flux to Salt Flux (-1=use local S)(ppt)*/
(PID.TID 0000.0001)                -1.000000000000000E+00
(PID.TID 0000.0001)     ;
(PID.TID 0000.0001) use3Dsolver = /* use 3-D pressure solver on/off flag */
(PID.TID 0000.0001)                   F
(PID.TID 0000.0001)     ;
(PID.TID 0000.0001) nonHydrostatic =  /* Non-Hydrostatic on/off flag */
(PID.TID 0000.0001)                   F
(PID.TID 0000.0001)     ;
(PID.TID 0000.0001) nh_Am2 = /* Non-Hydrostatic terms scaling factor */
(PID.TID 0000.0001)                 1.000000000000000E+00
(PID.TID 0000.0001)     ;
(PID.TID 0000.0001) quasiHydrostatic = /* Quasi-Hydrostatic on/off flag */
(PID.TID 0000.0001)                   F
(PID.TID 0000.0001)     ;
(PID.TID 0000.0001) momStepping =  /* Momentum equation on/off flag */
(PID.TID 0000.0001)                   T
(PID.TID 0000.0001)     ;
(PID.TID 0000.0001) vectorInvariantMomentum= /* Vector-Invariant Momentum on/off */
(PID.TID 0000.0001)                   F
(PID.TID 0000.0001)     ;
(PID.TID 0000.0001) momAdvection =  /* Momentum advection on/off flag */
(PID.TID 0000.0001)                   T
(PID.TID 0000.0001)     ;
(PID.TID 0000.0001) momViscosity =  /* Momentum viscosity on/off flag */
(PID.TID 0000.0001)                   T
(PID.TID 0000.0001)     ;
(PID.TID 0000.0001) momImplVertAdv =/* Momentum implicit vert. advection on/off*/
(PID.TID 0000.0001)                   F
(PID.TID 0000.0001)     ;
(PID.TID 0000.0001) implicitViscosity = /* Implicit viscosity on/off flag */
(PID.TID 0000.0001)                   F
(PID.TID 0000.0001)     ;
(PID.TID 0000.0001) metricTerms =  /* metric-Terms on/off flag */
(PID.TID 0000.0001)                   T
(PID.TID 0000.0001)     ;
(PID.TID 0000.0001) useNHMTerms = /* Non-Hydrostatic Metric-Terms on/off */
(PID.TID 0000.0001)                   F
(PID.TID 0000.0001)     ;
(PID.TID 0000.0001) useConstantF =  /* use Constant f0 Coriolis flag */
(PID.TID 0000.0001)                   F
(PID.TID 0000.0001)     ;
(PID.TID 0000.0001) useBetaPlaneF = /* use Beta-Plane Coriolis flag */
(PID.TID 0000.0001)                   F
(PID.TID 0000.0001)     ;
(PID.TID 0000.0001) useSphereF  =   /* use Spherical Coriolis flag */
(PID.TID 0000.0001)                   T
(PID.TID 0000.0001)     ;
(PID.TID 0000.0001) use3dCoriolis = /* 3-D Coriolis on/off flag */
(PID.TID 0000.0001)                   F
(PID.TID 0000.0001)     ;
(PID.TID 0000.0001) useCoriolis =  /* Coriolis on/off flag */
(PID.TID 0000.0001)                   T
(PID.TID 0000.0001)     ;
(PID.TID 0000.0001) useCDscheme =  /* CD scheme on/off flag */
(PID.TID 0000.0001)                   T
(PID.TID 0000.0001)     ;
(PID.TID 0000.0001) useJamartWetPoints= /* Coriolis WetPoints method flag */
(PID.TID 0000.0001)                   F
(PID.TID 0000.0001)     ;
(PID.TID 0000.0001) useJamartMomAdv= /* V.I. Non-linear terms Jamart flag */
(PID.TID 0000.0001)                   F
(PID.TID 0000.0001)     ;
(PID.TID 0000.0001) useAbsVorticity= /* Work with f+zeta in Coriolis */
(PID.TID 0000.0001)                   F
(PID.TID 0000.0001)     ;
(PID.TID 0000.0001) selectVortScheme= /* Scheme selector for Vorticity-Term */
(PID.TID 0000.0001)               123456789
(PID.TID 0000.0001)    = 0 : enstrophy (Shallow-Water Eq.) conserving scheme by Sadourny, JAS 75
(PID.TID 0000.0001)    = 1 : same as 0 with modified hFac
(PID.TID 0000.0001)    = 2 : energy conserving scheme (used by Sadourny in JAS 75 paper)
(PID.TID 0000.0001)    = 3 : energy (general) and enstrophy (2D, nonDiv.) conserving scheme
(PID.TID 0000.0001)          from Sadourny (Burridge & Haseler, ECMWF Rep.4, 1977)
(PID.TID 0000.0001)     ;
(PID.TID 0000.0001) upwindVorticity= /* Upwind bias vorticity flag */
(PID.TID 0000.0001)                   F
(PID.TID 0000.0001)     ;
(PID.TID 0000.0001) highOrderVorticity= /* High order interp. of vort. flag */
(PID.TID 0000.0001)                   F
(PID.TID 0000.0001)     ;
(PID.TID 0000.0001) upwindShear= /* Upwind vertical Shear advection flag */
(PID.TID 0000.0001)                   F
(PID.TID 0000.0001)     ;
(PID.TID 0000.0001) selectKEscheme= /* Kinetic Energy scheme selector */
(PID.TID 0000.0001)                       0
(PID.TID 0000.0001)     ;
(PID.TID 0000.0001) momForcing =  /* Momentum forcing on/off flag */
(PID.TID 0000.0001)                   T
(PID.TID 0000.0001)     ;
(PID.TID 0000.0001) momPressureForcing =  /* Momentum pressure term on/off flag */
(PID.TID 0000.0001)                   T
(PID.TID 0000.0001)     ;
(PID.TID 0000.0001) implicitIntGravWave= /* Implicit Internal Gravity Wave flag */
(PID.TID 0000.0001)                   F
(PID.TID 0000.0001)     ;
(PID.TID 0000.0001) staggerTimeStep =   /* Stagger time stepping on/off flag */
(PID.TID 0000.0001)                   F
(PID.TID 0000.0001)     ;
(PID.TID 0000.0001) multiDimAdvection =   /* enable/disable Multi-Dim Advection */
(PID.TID 0000.0001)                   T
(PID.TID 0000.0001)     ;
(PID.TID 0000.0001) useMultiDimAdvec =   /* Multi-Dim Advection is/is-not used */
(PID.TID 0000.0001)                   T
(PID.TID 0000.0001)     ;
(PID.TID 0000.0001) implicitDiffusion =/* Implicit Diffusion on/off flag */
(PID.TID 0000.0001)                   T
(PID.TID 0000.0001)     ;
(PID.TID 0000.0001) tempStepping =  /* Temperature equation on/off flag */
(PID.TID 0000.0001)                   T
(PID.TID 0000.0001)     ;
(PID.TID 0000.0001) tempAdvection=  /* Temperature advection on/off flag */
(PID.TID 0000.0001)                   T
(PID.TID 0000.0001)     ;
(PID.TID 0000.0001) tempImplVertAdv =/* Temp. implicit vert. advection on/off */
(PID.TID 0000.0001)                   F
(PID.TID 0000.0001)     ;
(PID.TID 0000.0001) tempForcing  =  /* Temperature forcing on/off flag */
(PID.TID 0000.0001)                   T
(PID.TID 0000.0001)     ;
(PID.TID 0000.0001) tempIsActiveTr = /* Temp. is a dynamically Active Tracer */
(PID.TID 0000.0001)                   T
(PID.TID 0000.0001)     ;
(PID.TID 0000.0001) saltStepping =  /* Salinity equation on/off flag */
(PID.TID 0000.0001)                   T
(PID.TID 0000.0001)     ;
(PID.TID 0000.0001) saltAdvection=  /* Salinity advection on/off flag */
(PID.TID 0000.0001)                   T
(PID.TID 0000.0001)     ;
(PID.TID 0000.0001) saltImplVertAdv =/* Sali. implicit vert. advection on/off */
(PID.TID 0000.0001)                   F
(PID.TID 0000.0001)     ;
(PID.TID 0000.0001) saltForcing  =  /* Salinity forcing on/off flag */
(PID.TID 0000.0001)                   T
(PID.TID 0000.0001)     ;
(PID.TID 0000.0001) saltIsActiveTr = /* Salt  is a dynamically Active Tracer */
(PID.TID 0000.0001)                   T
(PID.TID 0000.0001)     ;
(PID.TID 0000.0001)  readBinaryPrec = /* Precision used for reading binary files */
(PID.TID 0000.0001)                      32
(PID.TID 0000.0001)     ;
(PID.TID 0000.0001) writeBinaryPrec = /* Precision used for writing binary files */
(PID.TID 0000.0001)                      32
(PID.TID 0000.0001)     ;
(PID.TID 0000.0001)  globalFiles = /* write "global" (=not per tile) files */
(PID.TID 0000.0001)                   F
(PID.TID 0000.0001)     ;
(PID.TID 0000.0001)  useSingleCpuIO = /* only master MPI process does I/O */
(PID.TID 0000.0001)                   F
(PID.TID 0000.0001)     ;
(PID.TID 0000.0001)  debugMode  =  /* Debug Mode on/off flag */
(PID.TID 0000.0001)                   F
(PID.TID 0000.0001)     ;
(PID.TID 0000.0001)    debLevA  =  /* 1rst level of debugging */
(PID.TID 0000.0001)                       1
(PID.TID 0000.0001)     ;
(PID.TID 0000.0001)    debLevB  =  /* 2nd  level of debugging */
(PID.TID 0000.0001)                       2
(PID.TID 0000.0001)     ;
(PID.TID 0000.0001)  debugLevel =  /* select debugging level */
(PID.TID 0000.0001)                       1
(PID.TID 0000.0001)     ;
(PID.TID 0000.0001) //
(PID.TID 0000.0001) // Elliptic solver(s) paramters ( PARM02 in namelist )
(PID.TID 0000.0001) //
(PID.TID 0000.0001) cg2dMaxIters =   /* Upper limit on 2d con. grad iterations  */
(PID.TID 0000.0001)                     500
(PID.TID 0000.0001)     ;
(PID.TID 0000.0001) cg2dChkResFreq =   /* 2d con. grad convergence test frequency */
(PID.TID 0000.0001)                       1
(PID.TID 0000.0001)     ;
(PID.TID 0000.0001) cg2dTargetResidual =   /* 2d con. grad target residual  */
(PID.TID 0000.0001)                 1.000000000000000E-13
(PID.TID 0000.0001)     ;
(PID.TID 0000.0001) cg2dTargetResWunit =   /* CG2d target residual [W units] */
(PID.TID 0000.0001)                -1.000000000000000E+00
(PID.TID 0000.0001)     ;
(PID.TID 0000.0001) cg2dPreCondFreq =   /* Freq. for updating cg2d preconditioner */
(PID.TID 0000.0001)                       1
(PID.TID 0000.0001)     ;
(PID.TID 0000.0001) //
(PID.TID 0000.0001) // Time stepping paramters ( PARM03 in namelist )
(PID.TID 0000.0001) //
(PID.TID 0000.0001) deltaTmom =   /* Momentum equation timestep ( s ) */
(PID.TID 0000.0001)                 1.800000000000000E+03
(PID.TID 0000.0001)     ;
(PID.TID 0000.0001) deltaTfreesurf = /* FreeSurface equation timestep ( s ) */
(PID.TID 0000.0001)                 8.640000000000000E+04
(PID.TID 0000.0001)     ;
(PID.TID 0000.0001) dTtracerLev =  /* Tracer equation timestep ( s ) */
(PID.TID 0000.0001)    15 @  8.640000000000000E+04              /* K =  1: 15 */
(PID.TID 0000.0001)     ;
(PID.TID 0000.0001) deltaTClock  =   /* Model clock timestep ( s ) */
(PID.TID 0000.0001)                 8.640000000000000E+04
(PID.TID 0000.0001)     ;
(PID.TID 0000.0001) cAdjFreq =   /* Convective adjustment interval ( s ) */
(PID.TID 0000.0001)                 0.000000000000000E+00
(PID.TID 0000.0001)     ;
(PID.TID 0000.0001) momForcingOutAB = /* =1: take Momentum Forcing out of Adams-Bash. stepping */
(PID.TID 0000.0001)                       0
(PID.TID 0000.0001)     ;
(PID.TID 0000.0001) tracForcingOutAB = /* =1: take T,S,pTr Forcing out of Adams-Bash. stepping */
(PID.TID 0000.0001)                       0
(PID.TID 0000.0001)     ;
(PID.TID 0000.0001) momDissip_In_AB = /* put Dissipation Tendency in Adams-Bash. stepping */
(PID.TID 0000.0001)                   T
(PID.TID 0000.0001)     ;
(PID.TID 0000.0001) doAB_onGtGs = /* apply AB on Tendencies (rather than on T,S)*/
(PID.TID 0000.0001)                   T
(PID.TID 0000.0001)     ;
(PID.TID 0000.0001) abEps =   /* Adams-Bashforth-2 stabilizing weight */
(PID.TID 0000.0001)                 1.000000000000000E-01
(PID.TID 0000.0001)     ;
(PID.TID 0000.0001) tauCD =   /* CD coupling time-scale ( s ) */
(PID.TID 0000.0001)                 3.214280000000000E+05
(PID.TID 0000.0001)     ;
(PID.TID 0000.0001) rCD =   /* Normalised CD coupling parameter */
(PID.TID 0000.0001)                 9.943999900444267E-01
(PID.TID 0000.0001)     ;
(PID.TID 0000.0001) epsAB_CD = /* AB-2 stabilizing weight for CD-scheme*/
(PID.TID 0000.0001)                 1.000000000000000E-01
(PID.TID 0000.0001)     ;
(PID.TID 0000.0001) pickupStrictlyMatch= /* stop if pickup do not strictly match */
(PID.TID 0000.0001)                   T
(PID.TID 0000.0001)     ;
(PID.TID 0000.0001) nIter0 =   /* Run starting timestep number  */
(PID.TID 0000.0001)                       0
(PID.TID 0000.0001)     ;
(PID.TID 0000.0001) nTimeSteps =   /* Number of timesteps */
(PID.TID 0000.0001)                      20
(PID.TID 0000.0001)     ;
(PID.TID 0000.0001) baseTime =   /* Model base time ( s ). */
(PID.TID 0000.0001)                 0.000000000000000E+00
(PID.TID 0000.0001)     ;
(PID.TID 0000.0001) startTime =   /* Run start time ( s ). */
(PID.TID 0000.0001)                 0.000000000000000E+00
(PID.TID 0000.0001)     ;
(PID.TID 0000.0001) endTime =   /* Integration ending time ( s ). */
(PID.TID 0000.0001)                 1.728000000000000E+06
(PID.TID 0000.0001)     ;
(PID.TID 0000.0001) pChkPtFreq =   /* Permanent restart/checkpoint file interval ( s ). */
(PID.TID 0000.0001)                 1.728000000000000E+06
(PID.TID 0000.0001)     ;
(PID.TID 0000.0001) chkPtFreq =   /* Rolling restart/checkpoint file interval ( s ). */
(PID.TID 0000.0001)                 0.000000000000000E+00
(PID.TID 0000.0001)     ;
(PID.TID 0000.0001) pickup_write_mdsio =   /* Model IO flag. */
(PID.TID 0000.0001)                   T
(PID.TID 0000.0001)     ;
(PID.TID 0000.0001) pickup_read_mdsio =   /* Model IO flag. */
(PID.TID 0000.0001)                   T
(PID.TID 0000.0001)     ;
(PID.TID 0000.0001) pickup_write_mnc =   /* Model IO flag. */
(PID.TID 0000.0001)                   F
(PID.TID 0000.0001)     ;
(PID.TID 0000.0001) pickup_read_mnc =   /* Model IO flag. */
(PID.TID 0000.0001)                   F
(PID.TID 0000.0001)     ;
(PID.TID 0000.0001) pickup_write_immed =   /* Model IO flag. */
(PID.TID 0000.0001)                   F
(PID.TID 0000.0001)     ;
(PID.TID 0000.0001) writePickupAtEnd =   /* Model IO flag. */
(PID.TID 0000.0001)                   T
(PID.TID 0000.0001)     ;
(PID.TID 0000.0001) dumpFreq =   /* Model state write out interval ( s ). */
(PID.TID 0000.0001)                 8.640000000000000E+05
(PID.TID 0000.0001)     ;
(PID.TID 0000.0001) dumpInitAndLast= /* write out Initial & Last iter. model state */
(PID.TID 0000.0001)                   T
(PID.TID 0000.0001)     ;
(PID.TID 0000.0001) snapshot_mdsio =   /* Model IO flag. */
(PID.TID 0000.0001)                   T
(PID.TID 0000.0001)     ;
(PID.TID 0000.0001) snapshot_mnc =   /* Model IO flag. */
(PID.TID 0000.0001)                   F
(PID.TID 0000.0001)     ;
(PID.TID 0000.0001) monitorFreq =   /* Monitor output interval ( s ). */
(PID.TID 0000.0001)                 1.000000000000000E+00
(PID.TID 0000.0001)     ;
(PID.TID 0000.0001) monitorSelect = /* select group of variables to monitor */
(PID.TID 0000.0001)                       3
(PID.TID 0000.0001)     ;
(PID.TID 0000.0001) monitor_stdio =   /* Model IO flag. */
(PID.TID 0000.0001)                   T
(PID.TID 0000.0001)     ;
(PID.TID 0000.0001) monitor_mnc =   /* Model IO flag. */
(PID.TID 0000.0001)                   F
(PID.TID 0000.0001)     ;
(PID.TID 0000.0001) externForcingPeriod =   /* forcing period (s) */
(PID.TID 0000.0001)                 2.592000000000000E+06
(PID.TID 0000.0001)     ;
(PID.TID 0000.0001) externForcingCycle =   /* period of the cyle (s). */
(PID.TID 0000.0001)                 3.110400000000000E+07
(PID.TID 0000.0001)     ;
(PID.TID 0000.0001) tauThetaClimRelax =   /* relaxation time scale (s) */
(PID.TID 0000.0001)                 5.184000000000000E+06
(PID.TID 0000.0001)     ;
(PID.TID 0000.0001) tauSaltClimRelax =   /* relaxation time scale (s) */
(PID.TID 0000.0001)                 1.555200000000000E+07
(PID.TID 0000.0001)     ;
(PID.TID 0000.0001) latBandClimRelax =   /* max. Lat. where relaxation */
(PID.TID 0000.0001)                 1.800000000000000E+02
(PID.TID 0000.0001)     ;
(PID.TID 0000.0001) //
(PID.TID 0000.0001) // Gridding paramters ( PARM04 in namelist )
(PID.TID 0000.0001) //
(PID.TID 0000.0001) usingCartesianGrid = /* Cartesian coordinates flag ( True/False ) */
(PID.TID 0000.0001)                   F
(PID.TID 0000.0001)     ;
(PID.TID 0000.0001) usingCylindricalGrid = /* Cylindrical coordinates flag ( True/False ) */
(PID.TID 0000.0001)                   F
(PID.TID 0000.0001)     ;
(PID.TID 0000.0001) usingSphericalPolarGrid = /* Spherical coordinates flag ( True/False ) */
(PID.TID 0000.0001)                   T
(PID.TID 0000.0001)     ;
(PID.TID 0000.0001) usingCurvilinearGrid = /* Curvilinear coordinates flag ( True/False ) */
(PID.TID 0000.0001)                   F
(PID.TID 0000.0001)     ;
(PID.TID 0000.0001) Ro_SeaLevel = /* r(1) ( units of r ==  m ) */
(PID.TID 0000.0001)                 0.000000000000000E+00
(PID.TID 0000.0001)     ;
(PID.TID 0000.0001) rkSign =   /* index orientation relative to vertical coordinate */
(PID.TID 0000.0001)                -1.000000000000000E+00
(PID.TID 0000.0001)     ;
(PID.TID 0000.0001) gravitySign = /* gravity orientation relative to vertical coordinate */
(PID.TID 0000.0001)                -1.000000000000000E+00
(PID.TID 0000.0001)     ;
(PID.TID 0000.0001) mass2rUnit = /* convert mass per unit area [kg/m2] to r-units [m] */
(PID.TID 0000.0001)                 9.661835748792270E-04
(PID.TID 0000.0001)     ;
(PID.TID 0000.0001) rUnit2mass = /* convert r-units [m] to mass per unit area [kg/m2] */
(PID.TID 0000.0001)                 1.035000000000000E+03
(PID.TID 0000.0001)     ;
(PID.TID 0000.0001) drC =   /* C spacing ( units of r ) */
(PID.TID 0000.0001)                 2.500000000000000E+01,      /* K =  1 */
(PID.TID 0000.0001)                 6.000000000000000E+01,      /* K =  2 */
(PID.TID 0000.0001)                 8.500000000000000E+01,      /* K =  3 */
(PID.TID 0000.0001)                 1.200000000000000E+02,      /* K =  4 */
(PID.TID 0000.0001)                 1.650000000000000E+02,      /* K =  5 */
(PID.TID 0000.0001)                 2.150000000000000E+02,      /* K =  6 */
(PID.TID 0000.0001)                 2.650000000000000E+02,      /* K =  7 */
(PID.TID 0000.0001)                 3.150000000000000E+02,      /* K =  8 */
(PID.TID 0000.0001)                 3.650000000000000E+02,      /* K =  9 */
(PID.TID 0000.0001)                 4.150000000000000E+02,      /* K = 10 */
(PID.TID 0000.0001)                 4.650000000000000E+02,      /* K = 11 */
(PID.TID 0000.0001)                 5.150000000000000E+02,      /* K = 12 */
(PID.TID 0000.0001)                 5.650000000000000E+02,      /* K = 13 */
(PID.TID 0000.0001)                 6.150000000000000E+02,      /* K = 14 */
(PID.TID 0000.0001)                 6.650000000000000E+02       /* K = 15 */
(PID.TID 0000.0001)     ;
(PID.TID 0000.0001) drF =   /* W spacing ( units of r ) */
(PID.TID 0000.0001)                 5.000000000000000E+01,      /* K =  1 */
(PID.TID 0000.0001)                 7.000000000000000E+01,      /* K =  2 */
(PID.TID 0000.0001)                 1.000000000000000E+02,      /* K =  3 */
(PID.TID 0000.0001)                 1.400000000000000E+02,      /* K =  4 */
(PID.TID 0000.0001)                 1.900000000000000E+02,      /* K =  5 */
(PID.TID 0000.0001)                 2.400000000000000E+02,      /* K =  6 */
(PID.TID 0000.0001)                 2.900000000000000E+02,      /* K =  7 */
(PID.TID 0000.0001)                 3.400000000000000E+02,      /* K =  8 */
(PID.TID 0000.0001)                 3.900000000000000E+02,      /* K =  9 */
(PID.TID 0000.0001)                 4.400000000000000E+02,      /* K = 10 */
(PID.TID 0000.0001)                 4.900000000000000E+02,      /* K = 11 */
(PID.TID 0000.0001)                 5.400000000000000E+02,      /* K = 12 */
(PID.TID 0000.0001)                 5.900000000000000E+02,      /* K = 13 */
(PID.TID 0000.0001)                 6.400000000000000E+02,      /* K = 14 */
(PID.TID 0000.0001)                 6.900000000000000E+02       /* K = 15 */
(PID.TID 0000.0001)     ;
(PID.TID 0000.0001) delX = /* U spacing ( m - cartesian, degrees - spherical ) */
(PID.TID 0000.0001)    90 @  4.000000000000000E+00              /* I =  1: 90 */
(PID.TID 0000.0001)     ;
(PID.TID 0000.0001) delY = /* V spacing ( m - cartesian, degrees - spherical ) */
(PID.TID 0000.0001)    40 @  4.000000000000000E+00              /* J =  1: 40 */
(PID.TID 0000.0001)     ;
(PID.TID 0000.0001) xgOrigin = /* X-axis origin of West  edge (cartesian: m, lat-lon: deg.) */
(PID.TID 0000.0001)                 0.000000000000000E+00
(PID.TID 0000.0001)     ;
(PID.TID 0000.0001) ygOrigin = /* Y-axis origin of South edge (cartesian: m, lat-lon: deg.) */
(PID.TID 0000.0001)                -8.000000000000000E+01
(PID.TID 0000.0001)     ;
(PID.TID 0000.0001) rSphere =  /* Radius ( ignored - cartesian, m - spherical ) */
(PID.TID 0000.0001)                 6.370000000000000E+06
(PID.TID 0000.0001)     ;
(PID.TID 0000.0001) deepAtmosphere = /* Deep/Shallow Atmosphere flag (True/False) */
(PID.TID 0000.0001)                   F
(PID.TID 0000.0001)     ;
(PID.TID 0000.0001) xC =  /* xC(:,1,:,1) : P-point X coord ( deg. or m if cartesian) */
(PID.TID 0000.0001)                 2.000000000000000E+00,      /* I =  1 */
(PID.TID 0000.0001)                 6.000000000000000E+00,      /* I =  2 */
(PID.TID 0000.0001)                 1.000000000000000E+01,      /* I =  3 */
(PID.TID 0000.0001)      . . .
(PID.TID 0000.0001)                 8.200000000000000E+01,      /* I = 21 */
(PID.TID 0000.0001)                 8.600000000000000E+01,      /* I = 22 */
(PID.TID 0000.0001)                 9.000000000000000E+01,      /* I = 23 */
(PID.TID 0000.0001)                 9.400000000000000E+01,      /* I = 24 */
(PID.TID 0000.0001)                 9.800000000000000E+01,      /* I = 25 */
(PID.TID 0000.0001)                 1.020000000000000E+02,      /* I = 26 */
(PID.TID 0000.0001)      . . .
(PID.TID 0000.0001)                 1.700000000000000E+02,      /* I = 43 */
(PID.TID 0000.0001)                 1.740000000000000E+02,      /* I = 44 */
(PID.TID 0000.0001)                 1.780000000000000E+02,      /* I = 45 */
(PID.TID 0000.0001)                 1.820000000000000E+02,      /* I = 46 */
(PID.TID 0000.0001)                 1.860000000000000E+02,      /* I = 47 */
(PID.TID 0000.0001)                 1.900000000000000E+02,      /* I = 48 */
(PID.TID 0000.0001)      . . .
(PID.TID 0000.0001)                 2.580000000000000E+02,      /* I = 65 */
(PID.TID 0000.0001)                 2.620000000000000E+02,      /* I = 66 */
(PID.TID 0000.0001)                 2.660000000000000E+02,      /* I = 67 */
(PID.TID 0000.0001)                 2.700000000000000E+02,      /* I = 68 */
(PID.TID 0000.0001)                 2.740000000000000E+02,      /* I = 69 */
(PID.TID 0000.0001)                 2.780000000000000E+02,      /* I = 70 */
(PID.TID 0000.0001)      . . .
(PID.TID 0000.0001)                 3.500000000000000E+02,      /* I = 88 */
(PID.TID 0000.0001)                 3.540000000000000E+02,      /* I = 89 */
(PID.TID 0000.0001)                 3.580000000000000E+02       /* I = 90 */
(PID.TID 0000.0001)     ;
(PID.TID 0000.0001) yC =  /* yC(1,:,1,:) : P-point Y coord ( deg. or m if cartesian) */
(PID.TID 0000.0001)                -7.800000000000000E+01,      /* J =  1 */
(PID.TID 0000.0001)                -7.400000000000000E+01,      /* J =  2 */
(PID.TID 0000.0001)                -7.000000000000000E+01,      /* J =  3 */
(PID.TID 0000.0001)                -6.600000000000000E+01,      /* J =  4 */
(PID.TID 0000.0001)                -6.200000000000000E+01,      /* J =  5 */
(PID.TID 0000.0001)                -5.800000000000000E+01,      /* J =  6 */
(PID.TID 0000.0001)                -5.400000000000000E+01,      /* J =  7 */
(PID.TID 0000.0001)                -5.000000000000000E+01,      /* J =  8 */
(PID.TID 0000.0001)                -4.600000000000000E+01,      /* J =  9 */
(PID.TID 0000.0001)                -4.200000000000000E+01,      /* J = 10 */
(PID.TID 0000.0001)                -3.800000000000000E+01,      /* J = 11 */
(PID.TID 0000.0001)                -3.400000000000000E+01,      /* J = 12 */
(PID.TID 0000.0001)                -3.000000000000000E+01,      /* J = 13 */
(PID.TID 0000.0001)                -2.600000000000000E+01,      /* J = 14 */
(PID.TID 0000.0001)                -2.200000000000000E+01,      /* J = 15 */
(PID.TID 0000.0001)                -1.800000000000000E+01,      /* J = 16 */
(PID.TID 0000.0001)                -1.400000000000000E+01,      /* J = 17 */
(PID.TID 0000.0001)                -1.000000000000000E+01,      /* J = 18 */
(PID.TID 0000.0001)                -6.000000000000000E+00,      /* J = 19 */
(PID.TID 0000.0001)                -2.000000000000000E+00,      /* J = 20 */
(PID.TID 0000.0001)                 2.000000000000000E+00,      /* J = 21 */
(PID.TID 0000.0001)                 6.000000000000000E+00,      /* J = 22 */
(PID.TID 0000.0001)                 1.000000000000000E+01,      /* J = 23 */
(PID.TID 0000.0001)                 1.400000000000000E+01,      /* J = 24 */
(PID.TID 0000.0001)                 1.800000000000000E+01,      /* J = 25 */
(PID.TID 0000.0001)                 2.200000000000000E+01,      /* J = 26 */
(PID.TID 0000.0001)                 2.600000000000000E+01,      /* J = 27 */
(PID.TID 0000.0001)                 3.000000000000000E+01,      /* J = 28 */
(PID.TID 0000.0001)                 3.400000000000000E+01,      /* J = 29 */
(PID.TID 0000.0001)                 3.800000000000000E+01,      /* J = 30 */
(PID.TID 0000.0001)                 4.200000000000000E+01,      /* J = 31 */
(PID.TID 0000.0001)                 4.600000000000000E+01,      /* J = 32 */
(PID.TID 0000.0001)                 5.000000000000000E+01,      /* J = 33 */
(PID.TID 0000.0001)                 5.400000000000000E+01,      /* J = 34 */
(PID.TID 0000.0001)                 5.800000000000000E+01,      /* J = 35 */
(PID.TID 0000.0001)                 6.200000000000000E+01,      /* J = 36 */
(PID.TID 0000.0001)                 6.600000000000000E+01,      /* J = 37 */
(PID.TID 0000.0001)                 7.000000000000000E+01,      /* J = 38 */
(PID.TID 0000.0001)                 7.400000000000000E+01,      /* J = 39 */
(PID.TID 0000.0001)                 7.800000000000000E+01       /* J = 40 */
(PID.TID 0000.0001)     ;
(PID.TID 0000.0001) rcoord = /* P-point R coordinate (  units of r ) */
(PID.TID 0000.0001)                -2.500000000000000E+01,      /* K =  1 */
(PID.TID 0000.0001)                -8.500000000000000E+01,      /* K =  2 */
(PID.TID 0000.0001)                -1.700000000000000E+02,      /* K =  3 */
(PID.TID 0000.0001)                -2.900000000000000E+02,      /* K =  4 */
(PID.TID 0000.0001)                -4.550000000000000E+02,      /* K =  5 */
(PID.TID 0000.0001)                -6.700000000000000E+02,      /* K =  6 */
(PID.TID 0000.0001)                -9.350000000000000E+02,      /* K =  7 */
(PID.TID 0000.0001)                -1.250000000000000E+03,      /* K =  8 */
(PID.TID 0000.0001)                -1.615000000000000E+03,      /* K =  9 */
(PID.TID 0000.0001)                -2.030000000000000E+03,      /* K = 10 */
(PID.TID 0000.0001)                -2.495000000000000E+03,      /* K = 11 */
(PID.TID 0000.0001)                -3.010000000000000E+03,      /* K = 12 */
(PID.TID 0000.0001)                -3.575000000000000E+03,      /* K = 13 */
(PID.TID 0000.0001)                -4.190000000000000E+03,      /* K = 14 */
(PID.TID 0000.0001)                -4.855000000000000E+03       /* K = 15 */
(PID.TID 0000.0001)     ;
(PID.TID 0000.0001) rF =   /* W-Interf. R coordinate (  units of r ) */
(PID.TID 0000.0001)                 0.000000000000000E+00,      /* K =  1 */
(PID.TID 0000.0001)                -5.000000000000000E+01,      /* K =  2 */
(PID.TID 0000.0001)                -1.200000000000000E+02,      /* K =  3 */
(PID.TID 0000.0001)                -2.200000000000000E+02,      /* K =  4 */
(PID.TID 0000.0001)                -3.600000000000000E+02,      /* K =  5 */
(PID.TID 0000.0001)                -5.500000000000000E+02,      /* K =  6 */
(PID.TID 0000.0001)                -7.900000000000000E+02,      /* K =  7 */
(PID.TID 0000.0001)                -1.080000000000000E+03,      /* K =  8 */
(PID.TID 0000.0001)                -1.420000000000000E+03,      /* K =  9 */
(PID.TID 0000.0001)                -1.810000000000000E+03,      /* K = 10 */
(PID.TID 0000.0001)                -2.250000000000000E+03,      /* K = 11 */
(PID.TID 0000.0001)                -2.740000000000000E+03,      /* K = 12 */
(PID.TID 0000.0001)                -3.280000000000000E+03,      /* K = 13 */
(PID.TID 0000.0001)                -3.870000000000000E+03,      /* K = 14 */
(PID.TID 0000.0001)                -4.510000000000000E+03,      /* K = 15 */
(PID.TID 0000.0001)                -5.200000000000000E+03       /* K = 16 */
(PID.TID 0000.0001)     ;
(PID.TID 0000.0001) deepFacC = /* deep-model grid factor @ cell-Center (-) */
(PID.TID 0000.0001)    15 @  1.000000000000000E+00              /* K =  1: 15 */
(PID.TID 0000.0001)     ;
(PID.TID 0000.0001) deepFacF = /* deep-model grid factor @ W-Interface (-) */
(PID.TID 0000.0001)    16 @  1.000000000000000E+00              /* K =  1: 16 */
(PID.TID 0000.0001)     ;
(PID.TID 0000.0001) rVel2wUnit = /* convert units: rVel -> wSpeed (=1 if z-coord)*/
(PID.TID 0000.0001)    16 @  1.000000000000000E+00              /* K =  1: 16 */
(PID.TID 0000.0001)     ;
(PID.TID 0000.0001) wUnit2rVel = /* convert units: wSpeed -> rVel (=1 if z-coord)*/
(PID.TID 0000.0001)    16 @  1.000000000000000E+00              /* K =  1: 16 */
(PID.TID 0000.0001)     ;
(PID.TID 0000.0001) dBdrRef = /* Vertical gradient of reference boyancy [(m/s/r)^2)] */
(PID.TID 0000.0001)    15 @  0.000000000000000E+00              /* K =  1: 15 */
(PID.TID 0000.0001)     ;
(PID.TID 0000.0001) rotateGrid = /* use rotated grid ( True/False ) */
(PID.TID 0000.0001)                   F
(PID.TID 0000.0001)     ;
(PID.TID 0000.0001) phiEuler = /* Euler angle, rotation about original z-coordinate [rad] */
(PID.TID 0000.0001)                 0.000000000000000E+00
(PID.TID 0000.0001)     ;
(PID.TID 0000.0001) thetaEuler = /* Euler angle, rotation about new x-coordinate [rad] */
(PID.TID 0000.0001)                 0.000000000000000E+00
(PID.TID 0000.0001)     ;
(PID.TID 0000.0001) psiEuler = /* Euler angle, rotation about new z-coordinate [rad] */
(PID.TID 0000.0001)                 0.000000000000000E+00
(PID.TID 0000.0001)     ;
(PID.TID 0000.0001) dxF =  /* dxF(:,1,:,1) ( units: m ) */
(PID.TID 0000.0001)    90 @  9.246038586187513E+04              /* I =  1: 90 */
(PID.TID 0000.0001)     ;
(PID.TID 0000.0001) dxF =  /* dxF(1,:,1,:) ( units: m ) */
(PID.TID 0000.0001)                 9.246038586187513E+04,      /* J =  1 */
(PID.TID 0000.0001)                 1.225786591246834E+05,      /* J =  2 */
(PID.TID 0000.0001)                 1.520997414818001E+05,      /* J =  3 */
(PID.TID 0000.0001)                 1.808798091874300E+05,      /* J =  4 */
(PID.TID 0000.0001)                 2.087786486446736E+05,      /* J =  5 */
(PID.TID 0000.0001)                 2.356603395120765E+05,      /* J =  6 */
(PID.TID 0000.0001)                 2.613939168938713E+05,      /* J =  7 */
(PID.TID 0000.0001)                 2.858540093877838E+05,      /* J =  8 */
(PID.TID 0000.0001)                 3.089214498819034E+05,      /* J =  9 */
(PID.TID 0000.0001)                 3.304838561248741E+05,      /* J = 10 */
(PID.TID 0000.0001)                 3.504361782409254E+05,      /* J = 11 */
(PID.TID 0000.0001)                 3.686812105223082E+05,      /* J = 12 */
(PID.TID 0000.0001)                 3.851300650057323E+05,      /* J = 13 */
(PID.TID 0000.0001)                 3.997026045255871E+05,      /* J = 14 */
(PID.TID 0000.0001)                 4.123278331341585E+05,      /* J = 15 */
(PID.TID 0000.0001)                 4.229442419867491E+05,      /* J = 16 */
(PID.TID 0000.0001)                 4.315001090065870E+05,      /* J = 17 */
(PID.TID 0000.0001)                 4.379537508695838E+05,      /* J = 18 */
(PID.TID 0000.0001)                 4.422737260813012E+05,      /* J = 19 */
(PID.TID 0000.0001)     2 @  4.444389881567502E+05,             /* J = 20: 21 */
(PID.TID 0000.0001)                 4.422737260813012E+05,      /* J = 22 */
(PID.TID 0000.0001)                 4.379537508695838E+05,      /* J = 23 */
(PID.TID 0000.0001)                 4.315001090065870E+05,      /* J = 24 */
(PID.TID 0000.0001)                 4.229442419867491E+05,      /* J = 25 */
(PID.TID 0000.0001)                 4.123278331341585E+05,      /* J = 26 */
(PID.TID 0000.0001)                 3.997026045255871E+05,      /* J = 27 */
(PID.TID 0000.0001)                 3.851300650057323E+05,      /* J = 28 */
(PID.TID 0000.0001)                 3.686812105223082E+05,      /* J = 29 */
(PID.TID 0000.0001)                 3.504361782409254E+05,      /* J = 30 */
(PID.TID 0000.0001)                 3.304838561248741E+05,      /* J = 31 */
(PID.TID 0000.0001)                 3.089214498819034E+05,      /* J = 32 */
(PID.TID 0000.0001)                 2.858540093877838E+05,      /* J = 33 */
(PID.TID 0000.0001)                 2.613939168938713E+05,      /* J = 34 */
(PID.TID 0000.0001)                 2.356603395120765E+05,      /* J = 35 */
(PID.TID 0000.0001)                 2.087786486446736E+05,      /* J = 36 */
(PID.TID 0000.0001)                 1.808798091874300E+05,      /* J = 37 */
(PID.TID 0000.0001)                 1.520997414818001E+05,      /* J = 38 */
(PID.TID 0000.0001)                 1.225786591246834E+05,      /* J = 39 */
(PID.TID 0000.0001)                 9.246038586187513E+04       /* J = 40 */
(PID.TID 0000.0001)     ;
(PID.TID 0000.0001) dyF =  /* dyF(:,1,:,1) ( units: m ) */
(PID.TID 0000.0001)    90 @  4.447098934081552E+05              /* I =  1: 90 */
(PID.TID 0000.0001)     ;
(PID.TID 0000.0001) dyF =  /* dyF(1,:,1,:) ( units: m ) */
(PID.TID 0000.0001)    40 @  4.447098934081552E+05              /* J =  1: 40 */
(PID.TID 0000.0001)     ;
(PID.TID 0000.0001) dxG =  /* dxG(:,1,:,1) ( units: m ) */
(PID.TID 0000.0001)    90 @  7.722306258078101E+04              /* I =  1: 90 */
(PID.TID 0000.0001)     ;
(PID.TID 0000.0001) dxG =  /* dxG(1,:,1,:) ( units: m ) */
(PID.TID 0000.0001)                 7.722306258078101E+04,      /* J =  1 */
(PID.TID 0000.0001)                 1.075850604052271E+05,      /* J =  2 */
(PID.TID 0000.0001)                 1.374229146297914E+05,      /* J =  3 */
(PID.TID 0000.0001)                 1.665912582279823E+05,      /* J =  4 */
(PID.TID 0000.0001)                 1.949479859617814E+05,      /* J =  5 */
(PID.TID 0000.0001)                 2.223549467040777E+05,      /* J =  6 */
(PID.TID 0000.0001)                 2.486786164970726E+05,      /* J =  7 */
(PID.TID 0000.0001)                 2.737907490675810E+05,      /* J =  8 */
(PID.TID 0000.0001)                 2.975690006299821E+05,      /* J =  9 */
(PID.TID 0000.0001)                 3.198975259328452E+05,      /* J = 10 */
(PID.TID 0000.0001)                 3.406675426453503E+05,      /* J = 11 */
(PID.TID 0000.0001)                 3.597778613338690E+05,      /* J = 12 */
(PID.TID 0000.0001)                 3.771353784467131E+05,      /* J = 13 */
(PID.TID 0000.0001)                 3.926555299052806E+05,      /* J = 14 */
(PID.TID 0000.0001)                 4.062627030917454E+05,      /* J = 15 */
(PID.TID 0000.0001)                 4.178906052261313E+05,      /* J = 16 */
(PID.TID 0000.0001)                 4.274825863380723E+05,      /* J = 17 */
(PID.TID 0000.0001)                 4.349919152597734E+05,      /* J = 18 */
(PID.TID 0000.0001)                 4.403820072955634E+05,      /* J = 19 */
(PID.TID 0000.0001)                 4.436266024588540E+05,      /* J = 20 */
(PID.TID 0000.0001)                 4.447098934081552E+05,      /* J = 21 */
(PID.TID 0000.0001)                 4.436266024588540E+05,      /* J = 22 */
(PID.TID 0000.0001)                 4.403820072955634E+05,      /* J = 23 */
(PID.TID 0000.0001)                 4.349919152597734E+05,      /* J = 24 */
(PID.TID 0000.0001)                 4.274825863380723E+05,      /* J = 25 */
(PID.TID 0000.0001)                 4.178906052261313E+05,      /* J = 26 */
(PID.TID 0000.0001)                 4.062627030917454E+05,      /* J = 27 */
(PID.TID 0000.0001)                 3.926555299052806E+05,      /* J = 28 */
(PID.TID 0000.0001)                 3.771353784467131E+05,      /* J = 29 */
(PID.TID 0000.0001)                 3.597778613338690E+05,      /* J = 30 */
(PID.TID 0000.0001)                 3.406675426453503E+05,      /* J = 31 */
(PID.TID 0000.0001)                 3.198975259328452E+05,      /* J = 32 */
(PID.TID 0000.0001)                 2.975690006299821E+05,      /* J = 33 */
(PID.TID 0000.0001)                 2.737907490675810E+05,      /* J = 34 */
(PID.TID 0000.0001)                 2.486786164970726E+05,      /* J = 35 */
(PID.TID 0000.0001)                 2.223549467040777E+05,      /* J = 36 */
(PID.TID 0000.0001)                 1.949479859617814E+05,      /* J = 37 */
(PID.TID 0000.0001)                 1.665912582279823E+05,      /* J = 38 */
(PID.TID 0000.0001)                 1.374229146297914E+05,      /* J = 39 */
(PID.TID 0000.0001)                 1.075850604052271E+05       /* J = 40 */
(PID.TID 0000.0001)     ;
(PID.TID 0000.0001) dyG =  /* dyG(:,1,:,1) ( units: m ) */
(PID.TID 0000.0001)    90 @  4.447098934081552E+05              /* I =  1: 90 */
(PID.TID 0000.0001)     ;
(PID.TID 0000.0001) dyG =  /* dyG(1,:,1,:) ( units: m ) */
(PID.TID 0000.0001)    40 @  4.447098934081552E+05              /* J =  1: 40 */
(PID.TID 0000.0001)     ;
(PID.TID 0000.0001) dxC =  /* dxC(:,1,:,1) ( units: m ) */
(PID.TID 0000.0001)    90 @  9.246038586187513E+04              /* I =  1: 90 */
(PID.TID 0000.0001)     ;
(PID.TID 0000.0001) dxC =  /* dxC(1,:,1,:) ( units: m ) */
(PID.TID 0000.0001)                 9.246038586187513E+04,      /* J =  1 */
(PID.TID 0000.0001)                 1.225786591246834E+05,      /* J =  2 */
(PID.TID 0000.0001)                 1.520997414818001E+05,      /* J =  3 */
(PID.TID 0000.0001)                 1.808798091874300E+05,      /* J =  4 */
(PID.TID 0000.0001)                 2.087786486446736E+05,      /* J =  5 */
(PID.TID 0000.0001)                 2.356603395120765E+05,      /* J =  6 */
(PID.TID 0000.0001)                 2.613939168938713E+05,      /* J =  7 */
(PID.TID 0000.0001)                 2.858540093877838E+05,      /* J =  8 */
(PID.TID 0000.0001)                 3.089214498819034E+05,      /* J =  9 */
(PID.TID 0000.0001)                 3.304838561248741E+05,      /* J = 10 */
(PID.TID 0000.0001)                 3.504361782409254E+05,      /* J = 11 */
(PID.TID 0000.0001)                 3.686812105223082E+05,      /* J = 12 */
(PID.TID 0000.0001)                 3.851300650057323E+05,      /* J = 13 */
(PID.TID 0000.0001)                 3.997026045255871E+05,      /* J = 14 */
(PID.TID 0000.0001)                 4.123278331341585E+05,      /* J = 15 */
(PID.TID 0000.0001)                 4.229442419867491E+05,      /* J = 16 */
(PID.TID 0000.0001)                 4.315001090065870E+05,      /* J = 17 */
(PID.TID 0000.0001)                 4.379537508695838E+05,      /* J = 18 */
(PID.TID 0000.0001)                 4.422737260813012E+05,      /* J = 19 */
(PID.TID 0000.0001)     2 @  4.444389881567502E+05,             /* J = 20: 21 */
(PID.TID 0000.0001)                 4.422737260813012E+05,      /* J = 22 */
(PID.TID 0000.0001)                 4.379537508695838E+05,      /* J = 23 */
(PID.TID 0000.0001)                 4.315001090065870E+05,      /* J = 24 */
(PID.TID 0000.0001)                 4.229442419867491E+05,      /* J = 25 */
(PID.TID 0000.0001)                 4.123278331341585E+05,      /* J = 26 */
(PID.TID 0000.0001)                 3.997026045255871E+05,      /* J = 27 */
(PID.TID 0000.0001)                 3.851300650057323E+05,      /* J = 28 */
(PID.TID 0000.0001)                 3.686812105223082E+05,      /* J = 29 */
(PID.TID 0000.0001)                 3.504361782409254E+05,      /* J = 30 */
(PID.TID 0000.0001)                 3.304838561248741E+05,      /* J = 31 */
(PID.TID 0000.0001)                 3.089214498819034E+05,      /* J = 32 */
(PID.TID 0000.0001)                 2.858540093877838E+05,      /* J = 33 */
(PID.TID 0000.0001)                 2.613939168938713E+05,      /* J = 34 */
(PID.TID 0000.0001)                 2.356603395120765E+05,      /* J = 35 */
(PID.TID 0000.0001)                 2.087786486446736E+05,      /* J = 36 */
(PID.TID 0000.0001)                 1.808798091874300E+05,      /* J = 37 */
(PID.TID 0000.0001)                 1.520997414818001E+05,      /* J = 38 */
(PID.TID 0000.0001)                 1.225786591246834E+05,      /* J = 39 */
(PID.TID 0000.0001)                 9.246038586187513E+04       /* J = 40 */
(PID.TID 0000.0001)     ;
(PID.TID 0000.0001) dyC =  /* dyC(:,1,:,1) ( units: m ) */
(PID.TID 0000.0001)    90 @  4.447098934081552E+05              /* I =  1: 90 */
(PID.TID 0000.0001)     ;
(PID.TID 0000.0001) dyC =  /* dyC(1,:,1,:) ( units: m ) */
(PID.TID 0000.0001)    40 @  4.447098934081552E+05              /* J =  1: 40 */
(PID.TID 0000.0001)     ;
(PID.TID 0000.0001) dxV =  /* dxV(:,1,:,1) ( units: m ) */
(PID.TID 0000.0001)    90 @  7.722306258078101E+04              /* I =  1: 90 */
(PID.TID 0000.0001)     ;
(PID.TID 0000.0001) dxV =  /* dxV(1,:,1,:) ( units: m ) */
(PID.TID 0000.0001)                 7.722306258078101E+04,      /* J =  1 */
(PID.TID 0000.0001)                 1.075850604052271E+05,      /* J =  2 */
(PID.TID 0000.0001)                 1.374229146297914E+05,      /* J =  3 */
(PID.TID 0000.0001)                 1.665912582279823E+05,      /* J =  4 */
(PID.TID 0000.0001)                 1.949479859617814E+05,      /* J =  5 */
(PID.TID 0000.0001)                 2.223549467040777E+05,      /* J =  6 */
(PID.TID 0000.0001)                 2.486786164970726E+05,      /* J =  7 */
(PID.TID 0000.0001)                 2.737907490675810E+05,      /* J =  8 */
(PID.TID 0000.0001)                 2.975690006299821E+05,      /* J =  9 */
(PID.TID 0000.0001)                 3.198975259328452E+05,      /* J = 10 */
(PID.TID 0000.0001)                 3.406675426453503E+05,      /* J = 11 */
(PID.TID 0000.0001)                 3.597778613338690E+05,      /* J = 12 */
(PID.TID 0000.0001)                 3.771353784467131E+05,      /* J = 13 */
(PID.TID 0000.0001)                 3.926555299052806E+05,      /* J = 14 */
(PID.TID 0000.0001)                 4.062627030917454E+05,      /* J = 15 */
(PID.TID 0000.0001)                 4.178906052261313E+05,      /* J = 16 */
(PID.TID 0000.0001)                 4.274825863380723E+05,      /* J = 17 */
(PID.TID 0000.0001)                 4.349919152597734E+05,      /* J = 18 */
(PID.TID 0000.0001)                 4.403820072955634E+05,      /* J = 19 */
(PID.TID 0000.0001)                 4.436266024588540E+05,      /* J = 20 */
(PID.TID 0000.0001)                 4.447098934081552E+05,      /* J = 21 */
(PID.TID 0000.0001)                 4.436266024588540E+05,      /* J = 22 */
(PID.TID 0000.0001)                 4.403820072955634E+05,      /* J = 23 */
(PID.TID 0000.0001)                 4.349919152597734E+05,      /* J = 24 */
(PID.TID 0000.0001)                 4.274825863380723E+05,      /* J = 25 */
(PID.TID 0000.0001)                 4.178906052261313E+05,      /* J = 26 */
(PID.TID 0000.0001)                 4.062627030917454E+05,      /* J = 27 */
(PID.TID 0000.0001)                 3.926555299052806E+05,      /* J = 28 */
(PID.TID 0000.0001)                 3.771353784467131E+05,      /* J = 29 */
(PID.TID 0000.0001)                 3.597778613338690E+05,      /* J = 30 */
(PID.TID 0000.0001)                 3.406675426453503E+05,      /* J = 31 */
(PID.TID 0000.0001)                 3.198975259328452E+05,      /* J = 32 */
(PID.TID 0000.0001)                 2.975690006299821E+05,      /* J = 33 */
(PID.TID 0000.0001)                 2.737907490675810E+05,      /* J = 34 */
(PID.TID 0000.0001)                 2.486786164970726E+05,      /* J = 35 */
(PID.TID 0000.0001)                 2.223549467040777E+05,      /* J = 36 */
(PID.TID 0000.0001)                 1.949479859617814E+05,      /* J = 37 */
(PID.TID 0000.0001)                 1.665912582279823E+05,      /* J = 38 */
(PID.TID 0000.0001)                 1.374229146297914E+05,      /* J = 39 */
(PID.TID 0000.0001)                 1.075850604052271E+05       /* J = 40 */
(PID.TID 0000.0001)     ;
(PID.TID 0000.0001) dyU =  /* dyU(:,1,:,1) ( units: m ) */
(PID.TID 0000.0001)    90 @  4.447098934081552E+05              /* I =  1: 90 */
(PID.TID 0000.0001)     ;
(PID.TID 0000.0001) dyU =  /* dyU(1,:,1,:) ( units: m ) */
(PID.TID 0000.0001)    40 @  4.447098934081552E+05              /* J =  1: 40 */
(PID.TID 0000.0001)     ;
(PID.TID 0000.0001) rA  =  /* rA (:,1,:,1) ( units: m^2 ) */
(PID.TID 0000.0001)    90 @  4.110969866729047E+10              /* I =  1: 90 */
(PID.TID 0000.0001)     ;
(PID.TID 0000.0001) rA  =  /* rA (1,:,1,:) ( units: m^2 ) */
(PID.TID 0000.0001)                 4.110969866729047E+10,      /* J =  1 */
(PID.TID 0000.0001)                 5.450087291636665E+10,      /* J =  2 */
(PID.TID 0000.0001)                 6.762652439100235E+10,      /* J =  3 */
(PID.TID 0000.0001)                 8.042270623659998E+10,      /* J =  4 */
(PID.TID 0000.0001)                 9.282707674147523E+10,      /* J =  5 */
(PID.TID 0000.0001)                 1.047792030594103E+11,      /* J =  6 */
(PID.TID 0000.0001)                 1.162208556324093E+11,      /* J =  7 */
(PID.TID 0000.0001)                 1.270962918792468E+11,      /* J =  8 */
(PID.TID 0000.0001)                 1.373525277677229E+11,      /* J =  9 */
(PID.TID 0000.0001)                 1.469395959475426E+11,      /* J = 10 */
(PID.TID 0000.0001)                 1.558107891862220E+11,      /* J = 11 */
(PID.TID 0000.0001)                 1.639228879220326E+11,      /* J = 12 */
(PID.TID 0000.0001)                 1.712363708253573E+11,      /* J = 13 */
(PID.TID 0000.0001)                 1.777156073426415E+11,      /* J = 14 */
(PID.TID 0000.0001)                 1.833290312848623E+11,      /* J = 15 */
(PID.TID 0000.0001)                 1.880492946148330E+11,      /* J = 16 */
(PID.TID 0000.0001)                 1.918534006840893E+11,      /* J = 17 */
(PID.TID 0000.0001)                 1.947228162702492E+11,      /* J = 18 */
(PID.TID 0000.0001)                 1.966435618690094E+11,      /* J = 19 */
(PID.TID 0000.0001)     2 @  1.976062798008856E+11,             /* J = 20: 21 */
(PID.TID 0000.0001)                 1.966435618690094E+11,      /* J = 22 */
(PID.TID 0000.0001)                 1.947228162702492E+11,      /* J = 23 */
(PID.TID 0000.0001)                 1.918534006840893E+11,      /* J = 24 */
(PID.TID 0000.0001)                 1.880492946148330E+11,      /* J = 25 */
(PID.TID 0000.0001)                 1.833290312848623E+11,      /* J = 26 */
(PID.TID 0000.0001)                 1.777156073426415E+11,      /* J = 27 */
(PID.TID 0000.0001)                 1.712363708253573E+11,      /* J = 28 */
(PID.TID 0000.0001)                 1.639228879220326E+11,      /* J = 29 */
(PID.TID 0000.0001)                 1.558107891862220E+11,      /* J = 30 */
(PID.TID 0000.0001)                 1.469395959475426E+11,      /* J = 31 */
(PID.TID 0000.0001)                 1.373525277677229E+11,      /* J = 32 */
(PID.TID 0000.0001)                 1.270962918792468E+11,      /* J = 33 */
(PID.TID 0000.0001)                 1.162208556324093E+11,      /* J = 34 */
(PID.TID 0000.0001)                 1.047792030594103E+11,      /* J = 35 */
(PID.TID 0000.0001)                 9.282707674147523E+10,      /* J = 36 */
(PID.TID 0000.0001)                 8.042270623659998E+10,      /* J = 37 */
(PID.TID 0000.0001)                 6.762652439100235E+10,      /* J = 38 */
(PID.TID 0000.0001)                 5.450087291636665E+10,      /* J = 39 */
(PID.TID 0000.0001)                 4.110969866729047E+10       /* J = 40 */
(PID.TID 0000.0001)     ;
(PID.TID 0000.0001) rAw =  /* rAw(:,1,:,1) ( units: m^2 ) */
(PID.TID 0000.0001)    90 @  4.110969866729047E+10              /* I =  1: 90 */
(PID.TID 0000.0001)     ;
(PID.TID 0000.0001) rAw =  /* rAw(1,:,1,:) ( units: m^2 ) */
(PID.TID 0000.0001)                 4.110969866729047E+10,      /* J =  1 */
(PID.TID 0000.0001)                 5.450087291636665E+10,      /* J =  2 */
(PID.TID 0000.0001)                 6.762652439100235E+10,      /* J =  3 */
(PID.TID 0000.0001)                 8.042270623659998E+10,      /* J =  4 */
(PID.TID 0000.0001)                 9.282707674147523E+10,      /* J =  5 */
(PID.TID 0000.0001)                 1.047792030594103E+11,      /* J =  6 */
(PID.TID 0000.0001)                 1.162208556324093E+11,      /* J =  7 */
(PID.TID 0000.0001)                 1.270962918792468E+11,      /* J =  8 */
(PID.TID 0000.0001)                 1.373525277677229E+11,      /* J =  9 */
(PID.TID 0000.0001)                 1.469395959475426E+11,      /* J = 10 */
(PID.TID 0000.0001)                 1.558107891862220E+11,      /* J = 11 */
(PID.TID 0000.0001)                 1.639228879220326E+11,      /* J = 12 */
(PID.TID 0000.0001)                 1.712363708253573E+11,      /* J = 13 */
(PID.TID 0000.0001)                 1.777156073426415E+11,      /* J = 14 */
(PID.TID 0000.0001)                 1.833290312848623E+11,      /* J = 15 */
(PID.TID 0000.0001)                 1.880492946148330E+11,      /* J = 16 */
(PID.TID 0000.0001)                 1.918534006840893E+11,      /* J = 17 */
(PID.TID 0000.0001)                 1.947228162702492E+11,      /* J = 18 */
(PID.TID 0000.0001)                 1.966435618690094E+11,      /* J = 19 */
(PID.TID 0000.0001)     2 @  1.976062798008856E+11,             /* J = 20: 21 */
(PID.TID 0000.0001)                 1.966435618690094E+11,      /* J = 22 */
(PID.TID 0000.0001)                 1.947228162702492E+11,      /* J = 23 */
(PID.TID 0000.0001)                 1.918534006840893E+11,      /* J = 24 */
(PID.TID 0000.0001)                 1.880492946148330E+11,      /* J = 25 */
(PID.TID 0000.0001)                 1.833290312848623E+11,      /* J = 26 */
(PID.TID 0000.0001)                 1.777156073426415E+11,      /* J = 27 */
(PID.TID 0000.0001)                 1.712363708253573E+11,      /* J = 28 */
(PID.TID 0000.0001)                 1.639228879220326E+11,      /* J = 29 */
(PID.TID 0000.0001)                 1.558107891862220E+11,      /* J = 30 */
(PID.TID 0000.0001)                 1.469395959475426E+11,      /* J = 31 */
(PID.TID 0000.0001)                 1.373525277677229E+11,      /* J = 32 */
(PID.TID 0000.0001)                 1.270962918792468E+11,      /* J = 33 */
(PID.TID 0000.0001)                 1.162208556324093E+11,      /* J = 34 */
(PID.TID 0000.0001)                 1.047792030594103E+11,      /* J = 35 */
(PID.TID 0000.0001)                 9.282707674147523E+10,      /* J = 36 */
(PID.TID 0000.0001)                 8.042270623659998E+10,      /* J = 37 */
(PID.TID 0000.0001)                 6.762652439100235E+10,      /* J = 38 */
(PID.TID 0000.0001)                 5.450087291636665E+10,      /* J = 39 */
(PID.TID 0000.0001)                 4.110969866729047E+10       /* J = 40 */
(PID.TID 0000.0001)     ;
(PID.TID 0000.0001) rAs =  /* rAs(:,1,:,1) ( units: m^2 ) */
(PID.TID 0000.0001)    90 @  3.433488626798250E+10              /* I =  1: 90 */
(PID.TID 0000.0001)     ;
(PID.TID 0000.0001) rAs =  /* rAs(1,:,1,:) ( units: m^2 ) */
(PID.TID 0000.0001)                 3.433488626798250E+10,      /* J =  1 */
(PID.TID 0000.0001)                 4.783442523123625E+10,      /* J =  2 */
(PID.TID 0000.0001)                 6.110091968306414E+10,      /* J =  3 */
(PID.TID 0000.0001)                 7.406973659603818E+10,      /* J =  4 */
(PID.TID 0000.0001)                 8.667769319778079E+10,      /* J =  5 */
(PID.TID 0000.0001)                 9.886336479107463E+10,      /* J =  6 */
(PID.TID 0000.0001)                 1.105673840088173E+11,      /* J =  7 */
(PID.TID 0000.0001)                 1.217327300458638E+11,      /* J =  8 */
(PID.TID 0000.0001)                 1.323050064586578E+11,      /* J =  9 */
(PID.TID 0000.0001)                 1.422327061792377E+11,      /* J = 10 */
(PID.TID 0000.0001)                 1.514674624524945E+11,      /* J = 11 */
(PID.TID 0000.0001)                 1.599642844741385E+11,      /* J = 12 */
(PID.TID 0000.0001)                 1.676817765813788E+11,      /* J = 13 */
(PID.TID 0000.0001)                 1.745823399284268E+11,      /* J = 14 */
(PID.TID 0000.0001)                 1.806323556642996E+11,      /* J = 15 */
(PID.TID 0000.0001)                 1.858023487204767E+11,      /* J = 16 */
(PID.TID 0000.0001)                 1.900671314104743E+11,      /* J = 17 */
(PID.TID 0000.0001)                 1.934059261417216E+11,      /* J = 18 */
(PID.TID 0000.0001)                 1.958024666419019E+11,      /* J = 19 */
(PID.TID 0000.0001)                 1.972450772065981E+11,      /* J = 20 */
(PID.TID 0000.0001)                 1.977267295821495E+11,      /* J = 21 */
(PID.TID 0000.0001)                 1.972450772065981E+11,      /* J = 22 */
(PID.TID 0000.0001)                 1.958024666419019E+11,      /* J = 23 */
(PID.TID 0000.0001)                 1.934059261417216E+11,      /* J = 24 */
(PID.TID 0000.0001)                 1.900671314104743E+11,      /* J = 25 */
(PID.TID 0000.0001)                 1.858023487204767E+11,      /* J = 26 */
(PID.TID 0000.0001)                 1.806323556642996E+11,      /* J = 27 */
(PID.TID 0000.0001)                 1.745823399284268E+11,      /* J = 28 */
(PID.TID 0000.0001)                 1.676817765813788E+11,      /* J = 29 */
(PID.TID 0000.0001)                 1.599642844741385E+11,      /* J = 30 */
(PID.TID 0000.0001)                 1.514674624524945E+11,      /* J = 31 */
(PID.TID 0000.0001)                 1.422327061792377E+11,      /* J = 32 */
(PID.TID 0000.0001)                 1.323050064586578E+11,      /* J = 33 */
(PID.TID 0000.0001)                 1.217327300458638E+11,      /* J = 34 */
(PID.TID 0000.0001)                 1.105673840088173E+11,      /* J = 35 */
(PID.TID 0000.0001)                 9.886336479107463E+10,      /* J = 36 */
(PID.TID 0000.0001)                 8.667769319778079E+10,      /* J = 37 */
(PID.TID 0000.0001)                 7.406973659603818E+10,      /* J = 38 */
(PID.TID 0000.0001)                 6.110091968306414E+10,      /* J = 39 */
(PID.TID 0000.0001)                 4.783442523123625E+10       /* J = 40 */
(PID.TID 0000.0001)     ;
(PID.TID 0000.0001) globalArea = /* Integrated horizontal Area (m^2) */
(PID.TID 0000.0001)                 3.450614146649764E+14
(PID.TID 0000.0001)     ;
(PID.TID 0000.0001) the_run_name = /* Name of this simulation */
(PID.TID 0000.0001)               'global_oce_latlon'
(PID.TID 0000.0001)     ;
(PID.TID 0000.0001) // =======================================================
(PID.TID 0000.0001) // End of Model config. summary
(PID.TID 0000.0001) // =======================================================
(PID.TID 0000.0001) 
(PID.TID 0000.0001) == Packages configuration : Check & print summary ==
(PID.TID 0000.0001) 
(PID.TID 0000.0001) GAD_CHECK: #define ALLOW_GENERIC_ADVDIFF
(PID.TID 0000.0001) GMREDI_CHECK: #define GMREDI
(PID.TID 0000.0001) GM_AdvForm =     /* if FALSE => use SkewFlux Form */
(PID.TID 0000.0001)                   F
(PID.TID 0000.0001)     ;
(PID.TID 0000.0001) GM_InMomAsStress = /* if TRUE => apply as Eddy Stress */
(PID.TID 0000.0001)                   F
(PID.TID 0000.0001)     ;
(PID.TID 0000.0001) GM_AdvSeparate = /* Calc Bolus & Euler Adv. separately */
(PID.TID 0000.0001)                   F
(PID.TID 0000.0001)     ;
(PID.TID 0000.0001) GM_ExtraDiag =   /* Tensor Extra Diag (line 1&2) non 0 */
(PID.TID 0000.0001)                   F
(PID.TID 0000.0001)     ;
(PID.TID 0000.0001) GM_isopycK =    /* Background Isopyc. Diffusivity [m^2/s] */
(PID.TID 0000.0001)                 1.000000000000000E+03
(PID.TID 0000.0001)     ;
(PID.TID 0000.0001) GM_skewflx*K =  /* Background GM_SkewFlx Diffusivity [m^2/s] */
(PID.TID 0000.0001)                 1.000000000000000E+03
(PID.TID 0000.0001)     ;
(PID.TID 0000.0001) GM_advec*K =    /* Backg. GM-Advec(=Bolus) Diffusivity [m^2/s]*/
(PID.TID 0000.0001)                 0.000000000000000E+00
(PID.TID 0000.0001)     ;
(PID.TID 0000.0001) GM_Kmin_horiz = /* Minimum Horizontal Diffusivity [m^2/s] */
(PID.TID 0000.0001)                 0.000000000000000E+00
(PID.TID 0000.0001)     ;
(PID.TID 0000.0001) GM_Visbeck_alpha = /* Visbeck alpha coeff. [-] */
(PID.TID 0000.0001)                 0.000000000000000E+00
(PID.TID 0000.0001)     ;
(PID.TID 0000.0001) GM_Small_Number =  /* epsilon used in slope calc */
(PID.TID 0000.0001)                 9.999999999999999E-21
(PID.TID 0000.0001)     ;
(PID.TID 0000.0001) GM_slopeSqCutoff = /* Slope^2 cut-off value */
(PID.TID 0000.0001)                 1.000000000000000E+48
(PID.TID 0000.0001)     ;
(PID.TID 0000.0001) GM_taper_scheme =  /* Type of Tapering/Clipping scheme */
(PID.TID 0000.0001)               'gkw91                                   '
(PID.TID 0000.0001)     ;
(PID.TID 0000.0001) GM_maxSlope =  /* Maximum Slope (Tapering/Clipping) */
(PID.TID 0000.0001)                 1.000000000000000E-02
(PID.TID 0000.0001)     ;
(PID.TID 0000.0001) GM_facTrL2dz = /* Minimum Trans.Layer Thick. (factor of dz) */
(PID.TID 0000.0001)                 1.000000000000000E+00
(PID.TID 0000.0001)     ;
(PID.TID 0000.0001) GM_facTrL2ML = /* Max.Trans.Layer Thick. (factor of MxL Depth)*/
(PID.TID 0000.0001)                 5.000000000000000E+00
(PID.TID 0000.0001)     ;
(PID.TID 0000.0001) GM_maxTransLay = /* Maximum Transition Layer Thickness [m] */
(PID.TID 0000.0001)                 5.000000000000000E+02
(PID.TID 0000.0001)     ;
(PID.TID 0000.0001) // =======================================================
(PID.TID 0000.0001) // CONFIG_CHECK : Normal End
(PID.TID 0000.0001) // =======================================================
(PID.TID 0000.0001) 
(PID.TID 0000.0001)  MDS_READ_FIELD: opening global file: lev_t.bin
(PID.TID 0000.0001)  MDS_READ_FIELD: opening global file: lev_s.bin
(PID.TID 0000.0001) Start initial hydrostatic pressure computation
(PID.TID 0000.0001) Pressure is predetermined for buoyancyRelation OCEANIC
(PID.TID 0000.0001) 
(PID.TID 0000.0001)  MDS_READ_FIELD: opening global file: trenberth_taux.bin
(PID.TID 0000.0001)  MDS_READ_FIELD: opening global file: trenberth_tauy.bin
(PID.TID 0000.0001)  MDS_READ_FIELD: opening global file: ncep_qnet.bin
(PID.TID 0000.0001)  MDS_READ_FIELD: opening global file: ncep_emp.bin
(PID.TID 0000.0001)  MDS_READ_FIELD: opening global file: lev_sst.bin
(PID.TID 0000.0001)  MDS_READ_FIELD: opening global file: lev_sss.bin
(PID.TID 0000.0001) // =======================================================
(PID.TID 0000.0001) // Model current state
(PID.TID 0000.0001) // =======================================================
(PID.TID 0000.0001) 
(PID.TID 0000.0001) // =======================================================
(PID.TID 0000.0001) // Begin MONITOR dynamic field statistics
(PID.TID 0000.0001) // =======================================================
(PID.TID 0000.0001) %MON time_tsnumber                =                     0
(PID.TID 0000.0001) %MON time_secondsf                =   0.0000000000000E+00
(PID.TID 0000.0001) %MON dynstat_eta_max              =   0.0000000000000E+00
(PID.TID 0000.0001) %MON dynstat_eta_min              =   0.0000000000000E+00
(PID.TID 0000.0001) %MON dynstat_eta_mean             =   0.0000000000000E+00
(PID.TID 0000.0001) %MON dynstat_eta_sd               =   0.0000000000000E+00
(PID.TID 0000.0001) %MON dynstat_eta_del2             =   0.0000000000000E+00
(PID.TID 0000.0001) %MON dynstat_uvel_max             =   0.0000000000000E+00
(PID.TID 0000.0001) %MON dynstat_uvel_min             =   0.0000000000000E+00
(PID.TID 0000.0001) %MON dynstat_uvel_mean            =   0.0000000000000E+00
(PID.TID 0000.0001) %MON dynstat_uvel_sd              =   0.0000000000000E+00
(PID.TID 0000.0001) %MON dynstat_uvel_del2            =   0.0000000000000E+00
(PID.TID 0000.0001) %MON dynstat_vvel_max             =   0.0000000000000E+00
(PID.TID 0000.0001) %MON dynstat_vvel_min             =   0.0000000000000E+00
(PID.TID 0000.0001) %MON dynstat_vvel_mean            =   0.0000000000000E+00
(PID.TID 0000.0001) %MON dynstat_vvel_sd              =   0.0000000000000E+00
(PID.TID 0000.0001) %MON dynstat_vvel_del2            =   0.0000000000000E+00
(PID.TID 0000.0001) %MON dynstat_wvel_max             =   0.0000000000000E+00
(PID.TID 0000.0001) %MON dynstat_wvel_min             =   0.0000000000000E+00
(PID.TID 0000.0001) %MON dynstat_wvel_mean            =   0.0000000000000E+00
(PID.TID 0000.0001) %MON dynstat_wvel_sd              =   0.0000000000000E+00
(PID.TID 0000.0001) %MON dynstat_wvel_del2            =   0.0000000000000E+00
(PID.TID 0000.0001) %MON dynstat_theta_max            =   2.9733388900757E+01
(PID.TID 0000.0001) %MON dynstat_theta_min            =  -1.9000000000000E+00
(PID.TID 0000.0001) %MON dynstat_theta_mean           =   3.6197074666131E+00
(PID.TID 0000.0001) %MON dynstat_theta_sd             =   4.4174614518570E+00
(PID.TID 0000.0001) %MON dynstat_theta_del2           =   1.5097301766230E-01
(PID.TID 0000.0001) %MON dynstat_salt_max             =   3.7475627899170E+01
(PID.TID 0000.0001) %MON dynstat_salt_min             =   2.9752769470215E+01
(PID.TID 0000.0001) %MON dynstat_salt_mean            =   3.4718006161477E+01
(PID.TID 0000.0001) %MON dynstat_salt_sd              =   2.9628819587991E-01
(PID.TID 0000.0001) %MON dynstat_salt_del2            =   2.6251884861846E-02
(PID.TID 0000.0001) %MON extforcing_qnet_max          =   4.4161361694336E+02
(PID.TID 0000.0001) %MON extforcing_qnet_min          =  -1.8132531738281E+02
(PID.TID 0000.0001) %MON extforcing_qnet_mean         =  -1.6512526001044E+01
(PID.TID 0000.0001) %MON extforcing_qnet_sd           =   1.0987288293460E+02
(PID.TID 0000.0001) %MON extforcing_qnet_del2         =   9.6689454498868E+00
(PID.TID 0000.0001) %MON extforcing_qsw_max           =   0.0000000000000E+00
(PID.TID 0000.0001) %MON extforcing_qsw_min           =   0.0000000000000E+00
(PID.TID 0000.0001) %MON extforcing_qsw_mean          =   0.0000000000000E+00
(PID.TID 0000.0001) %MON extforcing_qsw_sd            =   0.0000000000000E+00
(PID.TID 0000.0001) %MON extforcing_qsw_del2          =   0.0000000000000E+00
(PID.TID 0000.0001) %MON extforcing_empmr_max         =   8.2174238968946E-05
(PID.TID 0000.0001) %MON extforcing_empmr_min         =  -7.6155956207913E-05
(PID.TID 0000.0001) %MON extforcing_empmr_mean        =   9.2293706211063E-07
(PID.TID 0000.0001) %MON extforcing_empmr_sd          =   2.8800050217957E-05
(PID.TID 0000.0001) %MON extforcing_empmr_del2        =   3.7517335599309E-06
(PID.TID 0000.0001) %MON advcfl_uvel_max              =   0.0000000000000E+00
(PID.TID 0000.0001) %MON advcfl_vvel_max              =   0.0000000000000E+00
(PID.TID 0000.0001) %MON advcfl_wvel_max              =   0.0000000000000E+00
(PID.TID 0000.0001) %MON advcfl_W_hf_max              =   0.0000000000000E+00
(PID.TID 0000.0001) %MON pe_b_mean                    =   0.0000000000000E+00
(PID.TID 0000.0001) %MON ke_max                       =   0.0000000000000E+00
(PID.TID 0000.0001) %MON ke_mean                      =   0.0000000000000E+00
(PID.TID 0000.0001) %MON ke_vol                       =   1.3226782436723E+18
(PID.TID 0000.0001) %MON vort_r_min                   =   0.0000000000000E+00
(PID.TID 0000.0001) %MON vort_r_max                   =   0.0000000000000E+00
(PID.TID 0000.0001) %MON vort_a_mean                  =  -2.5274807396950E-05
(PID.TID 0000.0001) %MON vort_a_sd                    =   7.3604350271443E-05
(PID.TID 0000.0001) %MON vort_p_mean                  =  -3.1845655798841E-05
(PID.TID 0000.0001) %MON vort_p_sd                    =   1.3162570071704E-04
(PID.TID 0000.0001) %MON surfExpan_theta_mean         =   0.0000000000000E+00
(PID.TID 0000.0001) %MON surfExpan_salt_mean          =   0.0000000000000E+00
(PID.TID 0000.0001) // =======================================================
(PID.TID 0000.0001) // End MONITOR dynamic field statistics
(PID.TID 0000.0001) // =======================================================
(PID.TID 0000.0001) // =======================================================
(PID.TID 0000.0001) // Begin MONITOR ptracer field statistics
(PID.TID 0000.0001) // =======================================================
(PID.TID 0000.0001) %MON trcstat_ptracer01_max        =   0.0000000000000E+00
(PID.TID 0000.0001) %MON trcstat_ptracer01_min        =   0.0000000000000E+00
(PID.TID 0000.0001) %MON trcstat_ptracer01_mean       =   0.0000000000000E+00
(PID.TID 0000.0001) %MON trcstat_ptracer01_sd         =   0.0000000000000E+00
(PID.TID 0000.0001) %MON trcstat_ptracer01_del2       =   0.0000000000000E+00
(PID.TID 0000.0001) // =======================================================
(PID.TID 0000.0001) // End MONITOR ptracers field statistics
(PID.TID 0000.0001) // =======================================================
S/R EXTERNAL_FIELDS_LOAD: Reading new data:   12    1         0  0.000000000000E+00
(PID.TID 0000.0001)  MDS_READ_FIELD: opening global file: trenberth_taux.bin
(PID.TID 0000.0001)  MDS_READ_FIELD: opening global file: trenberth_taux.bin
(PID.TID 0000.0001)  MDS_READ_FIELD: opening global file: trenberth_tauy.bin
(PID.TID 0000.0001)  MDS_READ_FIELD: opening global file: trenberth_tauy.bin
(PID.TID 0000.0001)  MDS_READ_FIELD: opening global file: ncep_qnet.bin
(PID.TID 0000.0001)  MDS_READ_FIELD: opening global file: ncep_qnet.bin
(PID.TID 0000.0001)  MDS_READ_FIELD: opening global file: ncep_emp.bin
(PID.TID 0000.0001)  MDS_READ_FIELD: opening global file: ncep_emp.bin
(PID.TID 0000.0001)  MDS_READ_FIELD: opening global file: lev_sst.bin
(PID.TID 0000.0001)  MDS_READ_FIELD: opening global file: lev_sst.bin
(PID.TID 0000.0001)  MDS_READ_FIELD: opening global file: lev_sss.bin
(PID.TID 0000.0001)  MDS_READ_FIELD: opening global file: lev_sss.bin
time,SST,SSS,fu,fv,Q,E-P,i0,i1,a,b =   0.0000E+00  5.3151E-02  3.4364E+01 -4.0500E-02 -6.3753E-02  2.6510E+02  1.0843E-05    12     1  5.0000E-01  5.0000E-01
time,fu0,fu1,fu =   0.0000E+00 -4.5368E-02 -3.5633E-02 -4.0500E-02  5.000000000000000E-01  5.000000000000000E-01
 cg2d: Sum(rhs),rhsMax =   3.70508933660302E-03  2.54927113998744E+00
(PID.TID 0000.0001)                    cg2d_init_res =    6.15844453763648E+00
(PID.TID 0000.0001)                       cg2d_iters =   142
(PID.TID 0000.0001)                         cg2d_res =    9.14095138480798E-14
(PID.TID 0000.0001) // =======================================================
(PID.TID 0000.0001) // Begin MONITOR dynamic field statistics
(PID.TID 0000.0001) // =======================================================
(PID.TID 0000.0001) %MON time_tsnumber                =                     1
(PID.TID 0000.0001) %MON time_secondsf                =   8.6400000000000E+04
(PID.TID 0000.0001) %MON dynstat_eta_max              =   6.5958488699556E-01
(PID.TID 0000.0001) %MON dynstat_eta_min              =  -8.0835404305900E-01
(PID.TID 0000.0001) %MON dynstat_eta_mean             =  -6.4811745051357E-05
(PID.TID 0000.0001) %MON dynstat_eta_sd               =   2.5965440360324E-01
(PID.TID 0000.0001) %MON dynstat_eta_del2             =   2.5281505404206E-02
(PID.TID 0000.0001) %MON dynstat_uvel_max             =   1.5158309744614E-02
(PID.TID 0000.0001) %MON dynstat_uvel_min             =  -1.6708732943418E-02
(PID.TID 0000.0001) %MON dynstat_uvel_mean            =  -5.1383409808450E-04
(PID.TID 0000.0001) %MON dynstat_uvel_sd              =   1.2647344356107E-03
(PID.TID 0000.0001) %MON dynstat_uvel_del2            =   5.5990850653030E-04
(PID.TID 0000.0001) %MON dynstat_vvel_max             =   1.8053048862944E-02
(PID.TID 0000.0001) %MON dynstat_vvel_min             =  -2.1368040981480E-02
(PID.TID 0000.0001) %MON dynstat_vvel_mean            =   7.3100703241455E-04
(PID.TID 0000.0001) %MON dynstat_vvel_sd              =   2.4750813838835E-03
(PID.TID 0000.0001) %MON dynstat_vvel_del2            =   6.3983780377869E-04
(PID.TID 0000.0001) %MON dynstat_wvel_max             =   6.2732222545290E-05
(PID.TID 0000.0001) %MON dynstat_wvel_min             =  -5.6766294178854E-05
(PID.TID 0000.0001) %MON dynstat_wvel_mean            =  -4.5506855000413E-23
(PID.TID 0000.0001) %MON dynstat_wvel_sd              =   7.1455736304656E-06
(PID.TID 0000.0001) %MON dynstat_wvel_del2            =   2.9254292238633E-06
(PID.TID 0000.0001) %MON dynstat_theta_max            =   2.9727194695260E+01
(PID.TID 0000.0001) %MON dynstat_theta_min            =  -1.9000840374778E+00
(PID.TID 0000.0001) %MON dynstat_theta_mean           =   3.6197724302515E+00
(PID.TID 0000.0001) %MON dynstat_theta_sd             =   4.4171656828420E+00
(PID.TID 0000.0001) %MON dynstat_theta_del2           =   1.5169422064151E-01
(PID.TID 0000.0001) %MON dynstat_salt_max             =   3.7467944348359E+01
(PID.TID 0000.0001) %MON dynstat_salt_min             =   2.9755344757050E+01
(PID.TID 0000.0001) %MON dynstat_salt_mean            =   3.4718006780218E+01
(PID.TID 0000.0001) %MON dynstat_salt_sd              =   2.9617241015381E-01
(PID.TID 0000.0001) %MON dynstat_salt_del2            =   2.6407828580349E-02
(PID.TID 0000.0001) %MON extforcing_qnet_max          =   4.2589080810547E+02
(PID.TID 0000.0001) %MON extforcing_qnet_min          =  -1.8702698516846E+02
(PID.TID 0000.0001) %MON extforcing_qnet_mean         =  -1.6700205338390E+01
(PID.TID 0000.0001) %MON extforcing_qnet_sd           =   1.1285666794876E+02
(PID.TID 0000.0001) %MON extforcing_qnet_del2         =   9.4920800031777E+00
(PID.TID 0000.0001) %MON extforcing_qsw_max           =   0.0000000000000E+00
(PID.TID 0000.0001) %MON extforcing_qsw_min           =   0.0000000000000E+00
(PID.TID 0000.0001) %MON extforcing_qsw_mean          =   0.0000000000000E+00
(PID.TID 0000.0001) %MON extforcing_qsw_sd            =   0.0000000000000E+00
(PID.TID 0000.0001) %MON extforcing_qsw_del2          =   0.0000000000000E+00
(PID.TID 0000.0001) %MON extforcing_empmr_max         =   8.3243762105667E-05
(PID.TID 0000.0001) %MON extforcing_empmr_min         =  -7.4169506092403E-05
(PID.TID 0000.0001) %MON extforcing_empmr_mean        =   7.7639069592806E-07
(PID.TID 0000.0001) %MON extforcing_empmr_sd          =   2.7794934142646E-05
(PID.TID 0000.0001) %MON extforcing_empmr_del2        =   3.7027911653282E-06
(PID.TID 0000.0001) %MON advcfl_uvel_max              =   6.2569403145551E-03
(PID.TID 0000.0001) %MON advcfl_vvel_max              =   4.1514676605259E-03
(PID.TID 0000.0001) %MON advcfl_wvel_max              =   3.2395082918054E-02
(PID.TID 0000.0001) %MON advcfl_W_hf_max              =   2.5775062655917E-02
(PID.TID 0000.0001) %MON pe_b_mean                    =   8.6272545460773E-05
(PID.TID 0000.0001) %MON ke_max                       =   1.9814789972770E-04
(PID.TID 0000.0001) %MON ke_mean                      =   3.8367971682897E-06
(PID.TID 0000.0001) %MON ke_vol                       =   1.3226782436723E+18
(PID.TID 0000.0001) %MON vort_r_min                   =  -8.7828725082878E-08
(PID.TID 0000.0001) %MON vort_r_max                   =   6.7513066589479E-08
(PID.TID 0000.0001) %MON vort_a_mean                  =  -2.5274807339750E-05
(PID.TID 0000.0001) %MON vort_a_sd                    =   7.3604247148406E-05
(PID.TID 0000.0001) %MON vort_p_mean                  =  -3.1845655726769E-05
(PID.TID 0000.0001) %MON vort_p_sd                    =   1.3162541835841E-04
(PID.TID 0000.0001) %MON surfExpan_theta_mean         =   2.1638492764470E-05
(PID.TID 0000.0001) %MON surfExpan_salt_mean          =   1.5080868114622E-06
(PID.TID 0000.0001) // =======================================================
(PID.TID 0000.0001) // End MONITOR dynamic field statistics
(PID.TID 0000.0001) // =======================================================
(PID.TID 0000.0001) // =======================================================
(PID.TID 0000.0001) // Begin MONITOR ptracer field statistics
(PID.TID 0000.0001) // =======================================================
(PID.TID 0000.0001) %MON trcstat_ptracer01_max        =   8.6400000000001E+04
(PID.TID 0000.0001) %MON trcstat_ptracer01_min        =   7.4539546605236E+01
(PID.TID 0000.0001) %MON trcstat_ptracer01_mean       =   8.5272994760076E+04
(PID.TID 0000.0001) %MON trcstat_ptracer01_sd         =   9.7387735932297E+03
(PID.TID 0000.0001) %MON trcstat_ptracer01_del2       =   1.1975769861525E+02
(PID.TID 0000.0001) // =======================================================
(PID.TID 0000.0001) // End MONITOR ptracers field statistics
(PID.TID 0000.0001) // =======================================================
time,SST,SSS,fu,fv,Q,E-P,i0,i1,a,b =   8.6400E+04  1.1350E-01  3.4387E+01 -4.0176E-02 -6.3320E-02  2.6514E+02  1.0896E-05    12     1  5.3333E-01  4.6667E-01
time,fu0,fu1,fu =   8.6400E+04 -4.5368E-02 -3.5633E-02 -4.0176E-02  5.333333333333333E-01  4.666666666666667E-01
 cg2d: Sum(rhs),rhsMax =   7.24857448104113E-03  2.62250320848982E+00
(PID.TID 0000.0001)                    cg2d_init_res =    5.58611064972340E-01
(PID.TID 0000.0001)                       cg2d_iters =   139
(PID.TID 0000.0001)                         cg2d_res =    8.25495660362564E-14
(PID.TID 0000.0001) // =======================================================
(PID.TID 0000.0001) // Begin MONITOR dynamic field statistics
(PID.TID 0000.0001) // =======================================================
(PID.TID 0000.0001) %MON time_tsnumber                =                     2
(PID.TID 0000.0001) %MON time_secondsf                =   1.7280000000000E+05
(PID.TID 0000.0001) %MON dynstat_eta_max              =   8.9579333046462E-01
(PID.TID 0000.0001) %MON dynstat_eta_min              =  -1.3058858155438E+00
(PID.TID 0000.0001) %MON dynstat_eta_mean             =  -1.3043905248859E-04
(PID.TID 0000.0001) %MON dynstat_eta_sd               =   4.3917501774902E-01
(PID.TID 0000.0001) %MON dynstat_eta_del2             =   2.5843384114063E-02
(PID.TID 0000.0001) %MON dynstat_uvel_max             =   3.1597520314895E-02
(PID.TID 0000.0001) %MON dynstat_uvel_min             =  -3.2832651788246E-02
(PID.TID 0000.0001) %MON dynstat_uvel_mean            =  -8.3315727722714E-04
(PID.TID 0000.0001) %MON dynstat_uvel_sd              =   2.3742331903121E-03
(PID.TID 0000.0001) %MON dynstat_uvel_del2            =   1.0243119260519E-03
(PID.TID 0000.0001) %MON dynstat_vvel_max             =   3.5574860728419E-02
(PID.TID 0000.0001) %MON dynstat_vvel_min             =  -4.2886544542962E-02
(PID.TID 0000.0001) %MON dynstat_vvel_mean            =   9.1799824155172E-04
(PID.TID 0000.0001) %MON dynstat_vvel_sd              =   4.1706325536509E-03
(PID.TID 0000.0001) %MON dynstat_vvel_del2            =   1.1998518219706E-03
(PID.TID 0000.0001) %MON dynstat_wvel_max             =   1.0648212526063E-04
(PID.TID 0000.0001) %MON dynstat_wvel_min             =  -9.6466841446125E-05
(PID.TID 0000.0001) %MON dynstat_wvel_mean            =   1.8789927225977E-22
(PID.TID 0000.0001) %MON dynstat_wvel_sd              =   1.1896177170254E-05
(PID.TID 0000.0001) %MON dynstat_wvel_del2            =   5.0458207060064E-06
(PID.TID 0000.0001) %MON dynstat_theta_max            =   2.9709534043795E+01
(PID.TID 0000.0001) %MON dynstat_theta_min            =  -1.9009852287901E+00
(PID.TID 0000.0001) %MON dynstat_theta_mean           =   3.6190585573552E+00
(PID.TID 0000.0001) %MON dynstat_theta_sd             =   4.4152823243215E+00
(PID.TID 0000.0001) %MON dynstat_theta_del2           =   1.5110980633401E-01
(PID.TID 0000.0001) %MON dynstat_salt_max             =   3.7460528657905E+01
(PID.TID 0000.0001) %MON dynstat_salt_min             =   2.9758135293246E+01
(PID.TID 0000.0001) %MON dynstat_salt_mean            =   3.4717953092760E+01
(PID.TID 0000.0001) %MON dynstat_salt_sd              =   2.9610748339420E-01
(PID.TID 0000.0001) %MON dynstat_salt_del2            =   2.6491485378726E-02
(PID.TID 0000.0001) %MON extforcing_qnet_max          =   4.2693899536133E+02
(PID.TID 0000.0001) %MON extforcing_qnet_min          =  -1.8655982259115E+02
(PID.TID 0000.0001) %MON extforcing_qnet_mean         =  -1.6687693382567E+01
(PID.TID 0000.0001) %MON extforcing_qnet_sd           =   1.1263946608433E+02
(PID.TID 0000.0001) %MON extforcing_qnet_del2         =   9.4914987500818E+00
(PID.TID 0000.0001) %MON extforcing_qsw_max           =   0.0000000000000E+00
(PID.TID 0000.0001) %MON extforcing_qsw_min           =   0.0000000000000E+00
(PID.TID 0000.0001) %MON extforcing_qsw_mean          =   0.0000000000000E+00
(PID.TID 0000.0001) %MON extforcing_qsw_sd            =   0.0000000000000E+00
(PID.TID 0000.0001) %MON extforcing_qsw_del2          =   0.0000000000000E+00
(PID.TID 0000.0001) %MON extforcing_empmr_max         =   8.2987928351486E-05
(PID.TID 0000.0001) %MON extforcing_empmr_min         =  -7.3906322484163E-05
(PID.TID 0000.0001) %MON extforcing_empmr_mean        =   7.8616045367357E-07
(PID.TID 0000.0001) %MON extforcing_empmr_sd          =   2.7832317986922E-05
(PID.TID 0000.0001) %MON extforcing_empmr_del2        =   3.6998499085005E-06
(PID.TID 0000.0001) %MON advcfl_uvel_max              =   1.0809659058062E-02
(PID.TID 0000.0001) %MON advcfl_vvel_max              =   8.3321677872165E-03
(PID.TID 0000.0001) %MON advcfl_wvel_max              =   3.3206275682201E-02
(PID.TID 0000.0001) %MON advcfl_W_hf_max              =   3.7575522482491E-02
(PID.TID 0000.0001) %MON pe_b_mean                    =   2.4680644331195E-04
(PID.TID 0000.0001) %MON ke_max                       =   8.8820184122660E-04
(PID.TID 0000.0001) %MON ke_mean                      =   1.1063672564241E-05
(PID.TID 0000.0001) %MON ke_vol                       =   1.3226782436723E+18
(PID.TID 0000.0001) %MON vort_r_min                   =  -1.7596522865392E-07
(PID.TID 0000.0001) %MON vort_r_max                   =   1.4401319138977E-07
(PID.TID 0000.0001) %MON vort_a_mean                  =  -2.5274807288394E-05
(PID.TID 0000.0001) %MON vort_a_sd                    =   7.3604186080288E-05
(PID.TID 0000.0001) %MON vort_p_mean                  =  -3.1845655662061E-05
(PID.TID 0000.0001) %MON vort_p_sd                    =   1.3162516635201E-04
(PID.TID 0000.0001) %MON surfExpan_theta_mean         =   1.9214634520663E-05
(PID.TID 0000.0001) %MON surfExpan_salt_mean          =   1.1419527236742E-06
(PID.TID 0000.0001) // =======================================================
(PID.TID 0000.0001) // End MONITOR dynamic field statistics
(PID.TID 0000.0001) // =======================================================
(PID.TID 0000.0001) // =======================================================
(PID.TID 0000.0001) // Begin MONITOR ptracer field statistics
(PID.TID 0000.0001) // =======================================================
(PID.TID 0000.0001) %MON trcstat_ptracer01_max        =   1.7284292164461E+05
(PID.TID 0000.0001) %MON trcstat_ptracer01_min        =   2.1544055140241E+02
(PID.TID 0000.0001) %MON trcstat_ptracer01_mean       =   1.7054488336324E+05
(PID.TID 0000.0001) %MON trcstat_ptracer01_sd         =   1.9420909583840E+04
(PID.TID 0000.0001) %MON trcstat_ptracer01_del2       =   2.7509728717332E+02
(PID.TID 0000.0001) // =======================================================
(PID.TID 0000.0001) // End MONITOR ptracers field statistics
(PID.TID 0000.0001) // =======================================================
time,SST,SSS,fu,fv,Q,E-P,i0,i1,a,b =   1.7280E+05  1.7385E-01  3.4410E+01 -3.9851E-02 -6.2886E-02  2.6519E+02  1.0949E-05    12     1  5.6667E-01  4.3333E-01
time,fu0,fu1,fu =   1.7280E+05 -4.5368E-02 -3.5633E-02 -3.9851E-02  5.666666666666667E-01  4.333333333333333E-01
 cg2d: Sum(rhs),rhsMax =   1.19684709005771E-02  2.39733193890614E+00
(PID.TID 0000.0001)                    cg2d_init_res =    4.94211584718951E-01
(PID.TID 0000.0001)                       cg2d_iters =   138
(PID.TID 0000.0001)                         cg2d_res =    9.46066328468470E-14
(PID.TID 0000.0001) // =======================================================
(PID.TID 0000.0001) // Begin MONITOR dynamic field statistics
(PID.TID 0000.0001) // =======================================================
(PID.TID 0000.0001) %MON time_tsnumber                =                     3
(PID.TID 0000.0001) %MON time_secondsf                =   2.5920000000000E+05
(PID.TID 0000.0001) %MON dynstat_eta_max              =   8.8573717538354E-01
(PID.TID 0000.0001) %MON dynstat_eta_min              =  -1.5677622362526E+00
(PID.TID 0000.0001) %MON dynstat_eta_mean             =  -1.9688192231140E-04
(PID.TID 0000.0001) %MON dynstat_eta_sd               =   5.2582064924709E-01
(PID.TID 0000.0001) %MON dynstat_eta_del2             =   2.4574320276818E-02
(PID.TID 0000.0001) %MON dynstat_uvel_max             =   5.0302285078103E-02
(PID.TID 0000.0001) %MON dynstat_uvel_min             =  -4.7196549522260E-02
(PID.TID 0000.0001) %MON dynstat_uvel_mean            =  -9.1541369012796E-04
(PID.TID 0000.0001) %MON dynstat_uvel_sd              =   3.4660277958941E-03
(PID.TID 0000.0001) %MON dynstat_uvel_del2            =   1.4145423681174E-03
(PID.TID 0000.0001) %MON dynstat_vvel_max             =   5.0537373381851E-02
(PID.TID 0000.0001) %MON dynstat_vvel_min             =  -6.2150864429253E-02
(PID.TID 0000.0001) %MON dynstat_vvel_mean            =   8.0740822204725E-04
(PID.TID 0000.0001) %MON dynstat_vvel_sd              =   5.7605712939340E-03
(PID.TID 0000.0001) %MON dynstat_vvel_del2            =   1.6856483722748E-03
(PID.TID 0000.0001) %MON dynstat_wvel_max             =   1.4649694815003E-04
(PID.TID 0000.0001) %MON dynstat_wvel_min             =  -1.2819425009764E-04
(PID.TID 0000.0001) %MON dynstat_wvel_mean            =   2.3487409032471E-23
(PID.TID 0000.0001) %MON dynstat_wvel_sd              =   1.6140263045629E-05
(PID.TID 0000.0001) %MON dynstat_wvel_del2            =   6.8836722865947E-06
(PID.TID 0000.0001) %MON dynstat_theta_max            =   2.9692755085553E+01
(PID.TID 0000.0001) %MON dynstat_theta_min            =  -1.9020265494073E+00
(PID.TID 0000.0001) %MON dynstat_theta_mean           =   3.6187251637400E+00
(PID.TID 0000.0001) %MON dynstat_theta_sd             =   4.4141782855645E+00
(PID.TID 0000.0001) %MON dynstat_theta_del2           =   1.4986668780799E-01
(PID.TID 0000.0001) %MON dynstat_salt_max             =   3.7454222790861E+01
(PID.TID 0000.0001) %MON dynstat_salt_min             =   2.9759103864705E+01
(PID.TID 0000.0001) %MON dynstat_salt_mean            =   3.4717932992133E+01
(PID.TID 0000.0001) %MON dynstat_salt_sd              =   2.9609734259929E-01
(PID.TID 0000.0001) %MON dynstat_salt_del2            =   2.6430832100417E-02
(PID.TID 0000.0001) %MON extforcing_qnet_max          =   4.2798718261719E+02
(PID.TID 0000.0001) %MON extforcing_qnet_min          =  -1.8609266001383E+02
(PID.TID 0000.0001) %MON extforcing_qnet_mean         =  -1.6675181426744E+01
(PID.TID 0000.0001) %MON extforcing_qnet_sd           =   1.1242481361476E+02
(PID.TID 0000.0001) %MON extforcing_qnet_del2         =   9.4925698128427E+00
(PID.TID 0000.0001) %MON extforcing_qsw_max           =   0.0000000000000E+00
(PID.TID 0000.0001) %MON extforcing_qsw_min           =   0.0000000000000E+00
(PID.TID 0000.0001) %MON extforcing_qsw_mean          =   0.0000000000000E+00
(PID.TID 0000.0001) %MON extforcing_qsw_sd            =   0.0000000000000E+00
(PID.TID 0000.0001) %MON extforcing_qsw_del2          =   0.0000000000000E+00
(PID.TID 0000.0001) %MON extforcing_empmr_max         =   8.2732094597304E-05
(PID.TID 0000.0001) %MON extforcing_empmr_min         =  -7.3643138875923E-05
(PID.TID 0000.0001) %MON extforcing_empmr_mean        =   7.9593021141907E-07
(PID.TID 0000.0001) %MON extforcing_empmr_sd          =   2.7874041013016E-05
(PID.TID 0000.0001) %MON extforcing_empmr_del2        =   3.6977851034475E-06
(PID.TID 0000.0001) %MON advcfl_uvel_max              =   1.6383285838219E-02
(PID.TID 0000.0001) %MON advcfl_vvel_max              =   1.2074916178577E-02
(PID.TID 0000.0001) %MON advcfl_wvel_max              =   4.6559521835114E-02
(PID.TID 0000.0001) %MON advcfl_W_hf_max              =   5.2685774708155E-02
(PID.TID 0000.0001) %MON pe_b_mean                    =   3.5379894635084E-04
(PID.TID 0000.0001) %MON ke_max                       =   2.0633833386356E-03
(PID.TID 0000.0001) %MON ke_mean                      =   2.1029058184137E-05
(PID.TID 0000.0001) %MON ke_vol                       =   1.3226782436723E+18
(PID.TID 0000.0001) %MON vort_r_min                   =  -2.3735892542735E-07
(PID.TID 0000.0001) %MON vort_r_max                   =   1.9981522586252E-07
(PID.TID 0000.0001) %MON vort_a_mean                  =  -2.5274807209078E-05
(PID.TID 0000.0001) %MON vort_a_sd                    =   7.3604171079184E-05
(PID.TID 0000.0001) %MON vort_p_mean                  =  -3.1845655562125E-05
(PID.TID 0000.0001) %MON vort_p_sd                    =   1.3162501521576E-04
(PID.TID 0000.0001) %MON surfExpan_theta_mean         =   1.0419619934159E-05
(PID.TID 0000.0001) %MON surfExpan_salt_mean          =   4.3580115674831E-07
(PID.TID 0000.0001) // =======================================================
(PID.TID 0000.0001) // End MONITOR dynamic field statistics
(PID.TID 0000.0001) // =======================================================
(PID.TID 0000.0001) // =======================================================
(PID.TID 0000.0001) // Begin MONITOR ptracer field statistics
(PID.TID 0000.0001) // =======================================================
(PID.TID 0000.0001) %MON trcstat_ptracer01_max        =   2.5932926484421E+05
(PID.TID 0000.0001) %MON trcstat_ptracer01_min        =   4.1519482714767E+02
(PID.TID 0000.0001) %MON trcstat_ptracer01_mean       =   2.5581483463927E+05
(PID.TID 0000.0001) %MON trcstat_ptracer01_sd         =   2.9061628309107E+04
(PID.TID 0000.0001) %MON trcstat_ptracer01_del2       =   4.6759734064889E+02
(PID.TID 0000.0001) // =======================================================
(PID.TID 0000.0001) // End MONITOR ptracers field statistics
(PID.TID 0000.0001) // =======================================================
time,SST,SSS,fu,fv,Q,E-P,i0,i1,a,b =   2.5920E+05  2.3421E-01  3.4434E+01 -3.9527E-02 -6.2453E-02  2.6523E+02  1.1002E-05    12     1  6.0000E-01  4.0000E-01
time,fu0,fu1,fu =   2.5920E+05 -4.5368E-02 -3.5633E-02 -3.9527E-02  6.000000000000000E-01  4.000000000000000E-01
 cg2d: Sum(rhs),rhsMax =   1.73697901771319E-02  2.21616036079496E+00
(PID.TID 0000.0001)                    cg2d_init_res =    4.17191503084326E-01
(PID.TID 0000.0001)                       cg2d_iters =   138
(PID.TID 0000.0001)                         cg2d_res =    8.64833145568898E-14
(PID.TID 0000.0001) // =======================================================
(PID.TID 0000.0001) // Begin MONITOR dynamic field statistics
(PID.TID 0000.0001) // =======================================================
(PID.TID 0000.0001) %MON time_tsnumber                =                     4
(PID.TID 0000.0001) %MON time_secondsf                =   3.4560000000000E+05
(PID.TID 0000.0001) %MON dynstat_eta_max              =   8.6641837967875E-01
(PID.TID 0000.0001) %MON dynstat_eta_min              =  -1.5895591860652E+00
(PID.TID 0000.0001) %MON dynstat_eta_mean             =  -2.6414035451986E-04
(PID.TID 0000.0001) %MON dynstat_eta_sd               =   5.5297547423697E-01
(PID.TID 0000.0001) %MON dynstat_eta_del2             =   2.3664175844350E-02
(PID.TID 0000.0001) %MON dynstat_uvel_max             =   7.0428774370437E-02
(PID.TID 0000.0001) %MON dynstat_uvel_min             =  -5.9976043658093E-02
(PID.TID 0000.0001) %MON dynstat_uvel_mean            =  -8.4132446609908E-04
(PID.TID 0000.0001) %MON dynstat_uvel_sd              =   4.6278806895465E-03
(PID.TID 0000.0001) %MON dynstat_uvel_del2            =   1.7427805043599E-03
(PID.TID 0000.0001) %MON dynstat_vvel_max             =   6.2523904466027E-02
(PID.TID 0000.0001) %MON dynstat_vvel_min             =  -7.8395992294739E-02
(PID.TID 0000.0001) %MON dynstat_vvel_mean            =   5.5767898009862E-04
(PID.TID 0000.0001) %MON dynstat_vvel_sd              =   7.2084738163650E-03
(PID.TID 0000.0001) %MON dynstat_vvel_del2            =   2.1018169674985E-03
(PID.TID 0000.0001) %MON dynstat_wvel_max             =   1.7999287039488E-04
(PID.TID 0000.0001) %MON dynstat_wvel_min             =  -1.5208316555200E-04
(PID.TID 0000.0001) %MON dynstat_wvel_mean            =   4.1102965806824E-23
(PID.TID 0000.0001) %MON dynstat_wvel_sd              =   1.9708868867459E-05
(PID.TID 0000.0001) %MON dynstat_wvel_del2            =   8.3240814155760E-06
(PID.TID 0000.0001) %MON dynstat_theta_max            =   2.9681201358307E+01
(PID.TID 0000.0001) %MON dynstat_theta_min            =  -1.9029734698534E+00
(PID.TID 0000.0001) %MON dynstat_theta_mean           =   3.6186760298472E+00
(PID.TID 0000.0001) %MON dynstat_theta_sd             =   4.4137834279369E+00
(PID.TID 0000.0001) %MON dynstat_theta_del2           =   1.4828616324182E-01
(PID.TID 0000.0001) %MON dynstat_salt_max             =   3.7448892307419E+01
(PID.TID 0000.0001) %MON dynstat_salt_min             =   2.9758534763935E+01
(PID.TID 0000.0001) %MON dynstat_salt_mean            =   3.4717933381864E+01
(PID.TID 0000.0001) %MON dynstat_salt_sd              =   2.9609111305433E-01
(PID.TID 0000.0001) %MON dynstat_salt_del2            =   2.6344571714590E-02
(PID.TID 0000.0001) %MON extforcing_qnet_max          =   4.2903536987305E+02
(PID.TID 0000.0001) %MON extforcing_qnet_min          =  -1.8562549743652E+02
(PID.TID 0000.0001) %MON extforcing_qnet_mean         =  -1.6662669470921E+01
(PID.TID 0000.0001) %MON extforcing_qnet_sd           =   1.1221272517031E+02
(PID.TID 0000.0001) %MON extforcing_qnet_del2         =   9.4953524693249E+00
(PID.TID 0000.0001) %MON extforcing_qsw_max           =   0.0000000000000E+00
(PID.TID 0000.0001) %MON extforcing_qsw_min           =   0.0000000000000E+00
(PID.TID 0000.0001) %MON extforcing_qsw_mean          =   0.0000000000000E+00
(PID.TID 0000.0001) %MON extforcing_qsw_sd            =   0.0000000000000E+00
(PID.TID 0000.0001) %MON extforcing_qsw_del2          =   0.0000000000000E+00
(PID.TID 0000.0001) %MON extforcing_empmr_max         =   8.2476260843123E-05
(PID.TID 0000.0001) %MON extforcing_empmr_min         =  -7.3379955267683E-05
(PID.TID 0000.0001) %MON extforcing_empmr_mean        =   8.0569996916458E-07
(PID.TID 0000.0001) %MON extforcing_empmr_sd          =   2.7920083767862E-05
(PID.TID 0000.0001) %MON extforcing_empmr_del2        =   3.6964783355601E-06
(PID.TID 0000.0001) %MON advcfl_uvel_max              =   2.2739264417671E-02
(PID.TID 0000.0001) %MON advcfl_vvel_max              =   1.5231083982314E-02
(PID.TID 0000.0001) %MON advcfl_wvel_max              =   5.8288382417976E-02
(PID.TID 0000.0001) %MON advcfl_W_hf_max              =   6.5957906420342E-02
(PID.TID 0000.0001) %MON pe_b_mean                    =   3.9128485523450E-04
(PID.TID 0000.0001) %MON ke_max                       =   3.6102411870768E-03
(PID.TID 0000.0001) %MON ke_mean                      =   3.3519457301778E-05
(PID.TID 0000.0001) %MON ke_vol                       =   1.3226782436723E+18
(PID.TID 0000.0001) %MON vort_r_min                   =  -2.6053973412150E-07
(PID.TID 0000.0001) %MON vort_r_max                   =   2.2127220460140E-07
(PID.TID 0000.0001) %MON vort_a_mean                  =  -2.5274807116793E-05
(PID.TID 0000.0001) %MON vort_a_sd                    =   7.3604186488733E-05
(PID.TID 0000.0001) %MON vort_p_mean                  =  -3.1845655445849E-05
(PID.TID 0000.0001) %MON vort_p_sd                    =   1.3162491729920E-04
(PID.TID 0000.0001) %MON surfExpan_theta_mean         =   3.0186432044257E-06
(PID.TID 0000.0001) %MON surfExpan_salt_mean          =  -4.5423780618242E-08
(PID.TID 0000.0001) // =======================================================
(PID.TID 0000.0001) // End MONITOR dynamic field statistics
(PID.TID 0000.0001) // =======================================================
(PID.TID 0000.0001) // =======================================================
(PID.TID 0000.0001) // Begin MONITOR ptracer field statistics
(PID.TID 0000.0001) // =======================================================
(PID.TID 0000.0001) %MON trcstat_ptracer01_max        =   3.4584271542819E+05
(PID.TID 0000.0001) %MON trcstat_ptracer01_min        =   6.6777418142604E+02
(PID.TID 0000.0001) %MON trcstat_ptracer01_mean       =   3.4108225459712E+05
(PID.TID 0000.0001) %MON trcstat_ptracer01_sd         =   3.8650004724907E+04
(PID.TID 0000.0001) %MON trcstat_ptracer01_del2       =   7.2728708763038E+02
(PID.TID 0000.0001) // =======================================================
(PID.TID 0000.0001) // End MONITOR ptracers field statistics
(PID.TID 0000.0001) // =======================================================
time,SST,SSS,fu,fv,Q,E-P,i0,i1,a,b =   3.4560E+05  2.9456E-01  3.4457E+01 -3.9202E-02 -6.2020E-02  2.6528E+02  1.1055E-05    12     1  6.3333E-01  3.6667E-01
time,fu0,fu1,fu =   3.4560E+05 -4.5368E-02 -3.5633E-02 -3.9202E-02  6.333333333333333E-01  3.666666666666667E-01
 cg2d: Sum(rhs),rhsMax =   2.40300740809167E-02  2.01476443304515E+00
(PID.TID 0000.0001)                    cg2d_init_res =    5.29235022817554E-01
(PID.TID 0000.0001)                       cg2d_iters =   138
(PID.TID 0000.0001)                         cg2d_res =    7.54779739003521E-14
(PID.TID 0000.0001) // =======================================================
(PID.TID 0000.0001) // Begin MONITOR dynamic field statistics
(PID.TID 0000.0001) // =======================================================
(PID.TID 0000.0001) %MON time_tsnumber                =                     5
(PID.TID 0000.0001) %MON time_secondsf                =   4.3200000000000E+05
(PID.TID 0000.0001) %MON dynstat_eta_max              =   8.8028984313227E-01
(PID.TID 0000.0001) %MON dynstat_eta_min              =  -1.5400628634465E+00
(PID.TID 0000.0001) %MON dynstat_eta_mean             =  -3.3221434911390E-04
(PID.TID 0000.0001) %MON dynstat_eta_sd               =   5.5249630225247E-01
(PID.TID 0000.0001) %MON dynstat_eta_del2             =   2.2731236499271E-02
(PID.TID 0000.0001) %MON dynstat_uvel_max             =   9.0982609693696E-02
(PID.TID 0000.0001) %MON dynstat_uvel_min             =  -7.0621783901974E-02
(PID.TID 0000.0001) %MON dynstat_uvel_mean            =  -6.8133334728004E-04
(PID.TID 0000.0001) %MON dynstat_uvel_sd              =   5.8726213670735E-03
(PID.TID 0000.0001) %MON dynstat_uvel_del2            =   2.0054788969807E-03
(PID.TID 0000.0001) %MON dynstat_vvel_max             =   7.3603519509965E-02
(PID.TID 0000.0001) %MON dynstat_vvel_min             =  -9.2390228164947E-02
(PID.TID 0000.0001) %MON dynstat_vvel_mean            =   2.6543702951062E-04
(PID.TID 0000.0001) %MON dynstat_vvel_sd              =   8.4089625134775E-03
(PID.TID 0000.0001) %MON dynstat_vvel_del2            =   2.4363477317971E-03
(PID.TID 0000.0001) %MON dynstat_wvel_max             =   2.0374443481230E-04
(PID.TID 0000.0001) %MON dynstat_wvel_min             =  -1.6730076604418E-04
(PID.TID 0000.0001) %MON dynstat_wvel_mean            =  -2.5248964709906E-22
(PID.TID 0000.0001) %MON dynstat_wvel_sd              =   2.2385579662988E-05
(PID.TID 0000.0001) %MON dynstat_wvel_del2            =   9.3080289727004E-06
(PID.TID 0000.0001) %MON dynstat_theta_max            =   2.9676194716729E+01
(PID.TID 0000.0001) %MON dynstat_theta_min            =  -1.9035008858678E+00
(PID.TID 0000.0001) %MON dynstat_theta_mean           =   3.6187739765603E+00
(PID.TID 0000.0001) %MON dynstat_theta_sd             =   4.4138233778560E+00
(PID.TID 0000.0001) %MON dynstat_theta_del2           =   1.4660383363662E-01
(PID.TID 0000.0001) %MON dynstat_salt_max             =   3.7444542323417E+01
(PID.TID 0000.0001) %MON dynstat_salt_min             =   2.9756856823111E+01
(PID.TID 0000.0001) %MON dynstat_salt_mean            =   3.4717941547772E+01
(PID.TID 0000.0001) %MON dynstat_salt_sd              =   2.9608525312851E-01
(PID.TID 0000.0001) %MON dynstat_salt_del2            =   2.6254310732120E-02
(PID.TID 0000.0001) %MON extforcing_qnet_max          =   4.3008355712891E+02
(PID.TID 0000.0001) %MON extforcing_qnet_min          =  -1.8515833485921E+02
(PID.TID 0000.0001) %MON extforcing_qnet_mean         =  -1.6650157515098E+01
(PID.TID 0000.0001) %MON extforcing_qnet_sd           =   1.1200321531664E+02
(PID.TID 0000.0001) %MON extforcing_qnet_del2         =   9.4991829492293E+00
(PID.TID 0000.0001) %MON extforcing_qsw_max           =   0.0000000000000E+00
(PID.TID 0000.0001) %MON extforcing_qsw_min           =   0.0000000000000E+00
(PID.TID 0000.0001) %MON extforcing_qsw_mean          =   0.0000000000000E+00
(PID.TID 0000.0001) %MON extforcing_qsw_sd            =   0.0000000000000E+00
(PID.TID 0000.0001) %MON extforcing_qsw_del2          =   0.0000000000000E+00
(PID.TID 0000.0001) %MON extforcing_empmr_max         =   8.2220427088942E-05
(PID.TID 0000.0001) %MON extforcing_empmr_min         =  -7.3116771659443E-05
(PID.TID 0000.0001) %MON extforcing_empmr_mean        =   8.1546972691008E-07
(PID.TID 0000.0001) %MON extforcing_empmr_sd          =   2.7970424919056E-05
(PID.TID 0000.0001) %MON extforcing_empmr_del2        =   3.6960876781391E-06
(PID.TID 0000.0001) %MON advcfl_uvel_max              =   2.9012838690738E-02
(PID.TID 0000.0001) %MON advcfl_vvel_max              =   1.7949939571336E-02
(PID.TID 0000.0001) %MON advcfl_wvel_max              =   6.7730839181383E-02
(PID.TID 0000.0001) %MON advcfl_W_hf_max              =   7.6642791705249E-02
(PID.TID 0000.0001) %MON pe_b_mean                    =   3.9060707797593E-04
(PID.TID 0000.0001) %MON ke_max                       =   5.4120583119120E-03
(PID.TID 0000.0001) %MON ke_mean                      =   4.7655917893558E-05
(PID.TID 0000.0001) %MON ke_vol                       =   1.3226782436723E+18
(PID.TID 0000.0001) %MON vort_r_min                   =  -2.5021244583966E-07
(PID.TID 0000.0001) %MON vort_r_max                   =   2.1256980674732E-07
(PID.TID 0000.0001) %MON vort_a_mean                  =  -2.5274807041434E-05
(PID.TID 0000.0001) %MON vort_a_sd                    =   7.3604218551925E-05
(PID.TID 0000.0001) %MON vort_p_mean                  =  -3.1845655350898E-05
(PID.TID 0000.0001) %MON vort_p_sd                    =   1.3162482489640E-04
(PID.TID 0000.0001) %MON surfExpan_theta_mean         =  -9.0769624084815E-07
(PID.TID 0000.0001) %MON surfExpan_salt_mean          =  -2.4327349058148E-07
(PID.TID 0000.0001) // =======================================================
(PID.TID 0000.0001) // End MONITOR dynamic field statistics
(PID.TID 0000.0001) // =======================================================
(PID.TID 0000.0001) // =======================================================
(PID.TID 0000.0001) // Begin MONITOR ptracer field statistics
(PID.TID 0000.0001) // =======================================================
(PID.TID 0000.0001) %MON trcstat_ptracer01_max        =   4.3238304383778E+05
(PID.TID 0000.0001) %MON trcstat_ptracer01_min        =   9.6787310646346E+02
(PID.TID 0000.0001) %MON trcstat_ptracer01_mean       =   4.2634623890975E+05
(PID.TID 0000.0001) %MON trcstat_ptracer01_sd         =   4.8173246331942E+04
(PID.TID 0000.0001) %MON trcstat_ptracer01_del2       =   1.0377888630909E+03
(PID.TID 0000.0001) // =======================================================
(PID.TID 0000.0001) // End MONITOR ptracers field statistics
(PID.TID 0000.0001) // =======================================================
time,SST,SSS,fu,fv,Q,E-P,i0,i1,a,b =   4.3200E+05  3.5491E-01  3.4481E+01 -3.8878E-02 -6.1587E-02  2.6532E+02  1.1107E-05    12     1  6.6667E-01  3.3333E-01
time,fu0,fu1,fu =   4.3200E+05 -4.5368E-02 -3.5633E-02 -3.8878E-02  6.666666666666666E-01  3.333333333333334E-01
 cg2d: Sum(rhs),rhsMax =   3.25155706790774E-02  1.79773845810922E+00
(PID.TID 0000.0001)                    cg2d_init_res =    6.36837564930044E-01
(PID.TID 0000.0001)                       cg2d_iters =   136
(PID.TID 0000.0001)                         cg2d_res =    9.68161334528775E-14
(PID.TID 0000.0001) // =======================================================
(PID.TID 0000.0001) // Begin MONITOR dynamic field statistics
(PID.TID 0000.0001) // =======================================================
(PID.TID 0000.0001) %MON time_tsnumber                =                     6
(PID.TID 0000.0001) %MON time_secondsf                =   5.1840000000000E+05
(PID.TID 0000.0001) %MON dynstat_eta_max              =   1.0225073626686E+00
(PID.TID 0000.0001) %MON dynstat_eta_min              =  -1.4924916224681E+00
(PID.TID 0000.0001) %MON dynstat_eta_mean             =  -4.0110390609405E-04
(PID.TID 0000.0001) %MON dynstat_eta_sd               =   5.4283044955244E-01
(PID.TID 0000.0001) %MON dynstat_eta_del2             =   2.1910329138293E-02
(PID.TID 0000.0001) %MON dynstat_uvel_max             =   1.1100632605575E-01
(PID.TID 0000.0001) %MON dynstat_uvel_min             =  -7.8835722052424E-02
(PID.TID 0000.0001) %MON dynstat_uvel_mean            =  -4.7783970813600E-04
(PID.TID 0000.0001) %MON dynstat_uvel_sd              =   7.1791800843657E-03
(PID.TID 0000.0001) %MON dynstat_uvel_del2            =   2.2069106442759E-03
(PID.TID 0000.0001) %MON dynstat_vvel_max             =   8.2477064117153E-02
(PID.TID 0000.0001) %MON dynstat_vvel_min             =  -1.0362842841120E-01
(PID.TID 0000.0001) %MON dynstat_vvel_mean            =   5.0632802666468E-07
(PID.TID 0000.0001) %MON dynstat_vvel_sd              =   9.3215669808365E-03
(PID.TID 0000.0001) %MON dynstat_vvel_del2            =   2.6838420593388E-03
(PID.TID 0000.0001) %MON dynstat_wvel_max             =   2.2088141605459E-04
(PID.TID 0000.0001) %MON dynstat_wvel_min             =  -1.7323477956615E-04
(PID.TID 0000.0001) %MON dynstat_wvel_mean            =   7.0462227097413E-23
(PID.TID 0000.0001) %MON dynstat_wvel_sd              =   2.4099163629511E-05
(PID.TID 0000.0001) %MON dynstat_wvel_del2            =   9.8316930091917E-06
(PID.TID 0000.0001) %MON dynstat_theta_max            =   2.9674322681988E+01
(PID.TID 0000.0001) %MON dynstat_theta_min            =  -1.9037436302920E+00
(PID.TID 0000.0001) %MON dynstat_theta_mean           =   3.6189124710550E+00
(PID.TID 0000.0001) %MON dynstat_theta_sd             =   4.4140137057597E+00
(PID.TID 0000.0001) %MON dynstat_theta_del2           =   1.4494083033534E-01
(PID.TID 0000.0001) %MON dynstat_salt_max             =   3.7441063195465E+01
(PID.TID 0000.0001) %MON dynstat_salt_min             =   2.9754577010509E+01
(PID.TID 0000.0001) %MON dynstat_salt_mean            =   3.4717950323551E+01
(PID.TID 0000.0001) %MON dynstat_salt_sd              =   2.9609133072937E-01
(PID.TID 0000.0001) %MON dynstat_salt_del2            =   2.6181405339422E-02
(PID.TID 0000.0001) %MON extforcing_qnet_max          =   4.3113174438477E+02
(PID.TID 0000.0001) %MON extforcing_qnet_min          =  -1.8469117228190E+02
(PID.TID 0000.0001) %MON extforcing_qnet_mean         =  -1.6637645559275E+01
(PID.TID 0000.0001) %MON extforcing_qnet_sd           =   1.1179629855085E+02
(PID.TID 0000.0001) %MON extforcing_qnet_del2         =   9.5054858461913E+00
(PID.TID 0000.0001) %MON extforcing_qsw_max           =   0.0000000000000E+00
(PID.TID 0000.0001) %MON extforcing_qsw_min           =   0.0000000000000E+00
(PID.TID 0000.0001) %MON extforcing_qsw_mean          =   0.0000000000000E+00
(PID.TID 0000.0001) %MON extforcing_qsw_sd            =   0.0000000000000E+00
(PID.TID 0000.0001) %MON extforcing_qsw_del2          =   0.0000000000000E+00
(PID.TID 0000.0001) %MON extforcing_empmr_max         =   8.1964593334760E-05
(PID.TID 0000.0001) %MON extforcing_empmr_min         =  -7.2853588051203E-05
(PID.TID 0000.0001) %MON extforcing_empmr_mean        =   8.2523948465559E-07
(PID.TID 0000.0001) %MON extforcing_empmr_sd          =   2.8025041303087E-05
(PID.TID 0000.0001) %MON extforcing_empmr_del2        =   3.6966044987725E-06
(PID.TID 0000.0001) %MON advcfl_uvel_max              =   3.4915854291211E-02
(PID.TID 0000.0001) %MON advcfl_vvel_max              =   2.0133341640120E-02
(PID.TID 0000.0001) %MON advcfl_wvel_max              =   7.4583112490013E-02
(PID.TID 0000.0001) %MON advcfl_W_hf_max              =   8.4396679922909E-02
(PID.TID 0000.0001) %MON pe_b_mean                    =   3.7705945832708E-04
(PID.TID 0000.0001) %MON ke_max                       =   7.3617324000148E-03
(PID.TID 0000.0001) %MON ke_mean                      =   6.2528874498448E-05
(PID.TID 0000.0001) %MON ke_vol                       =   1.3226782436723E+18
(PID.TID 0000.0001) %MON vort_r_min                   =  -2.4208841329187E-07
(PID.TID 0000.0001) %MON vort_r_max                   =   2.0916954703758E-07
(PID.TID 0000.0001) %MON vort_a_mean                  =  -2.5274806999709E-05
(PID.TID 0000.0001) %MON vort_a_sd                    =   7.3604258248710E-05
(PID.TID 0000.0001) %MON vort_p_mean                  =  -3.1845655298326E-05
(PID.TID 0000.0001) %MON vort_p_sd                    =   1.3162471823955E-04
(PID.TID 0000.0001) %MON surfExpan_theta_mean         =  -1.9634503598223E-06
(PID.TID 0000.0001) %MON surfExpan_salt_mean          =  -2.5943306398814E-07
(PID.TID 0000.0001) // =======================================================
(PID.TID 0000.0001) // End MONITOR dynamic field statistics
(PID.TID 0000.0001) // =======================================================
(PID.TID 0000.0001) // =======================================================
(PID.TID 0000.0001) // Begin MONITOR ptracer field statistics
(PID.TID 0000.0001) // =======================================================
(PID.TID 0000.0001) %MON trcstat_ptracer01_max        =   5.1891226880679E+05
(PID.TID 0000.0001) %MON trcstat_ptracer01_min        =   1.3089370099392E+03
(PID.TID 0000.0001) %MON trcstat_ptracer01_mean       =   5.1160583838178E+05
(PID.TID 0000.0001) %MON trcstat_ptracer01_sd         =   5.7623888858530E+04
(PID.TID 0000.0001) %MON trcstat_ptracer01_del2       =   1.4626787950544E+03
(PID.TID 0000.0001) // =======================================================
(PID.TID 0000.0001) // End MONITOR ptracers field statistics
(PID.TID 0000.0001) // =======================================================
time,SST,SSS,fu,fv,Q,E-P,i0,i1,a,b =   5.1840E+05  4.1526E-01  3.4504E+01 -3.8553E-02 -6.1154E-02  2.6537E+02  1.1160E-05    12     1  7.0000E-01  3.0000E-01
time,fu0,fu1,fu =   5.1840E+05 -4.5368E-02 -3.5633E-02 -3.8553E-02  7.000000000000000E-01  3.000000000000000E-01
 cg2d: Sum(rhs),rhsMax =   4.35653568854004E-02  1.57494177295098E+00
(PID.TID 0000.0001)                    cg2d_init_res =    7.45037082616586E-01
(PID.TID 0000.0001)                       cg2d_iters =   135
(PID.TID 0000.0001)                         cg2d_res =    9.68990750134146E-14
(PID.TID 0000.0001) // =======================================================
(PID.TID 0000.0001) // Begin MONITOR dynamic field statistics
(PID.TID 0000.0001) // =======================================================
(PID.TID 0000.0001) %MON time_tsnumber                =                     7
(PID.TID 0000.0001) %MON time_secondsf                =   6.0480000000000E+05
(PID.TID 0000.0001) %MON dynstat_eta_max              =   1.0797165874886E+00
(PID.TID 0000.0001) %MON dynstat_eta_min              =  -1.4566302650263E+00
(PID.TID 0000.0001) %MON dynstat_eta_mean             =  -4.7080902545949E-04
(PID.TID 0000.0001) %MON dynstat_eta_sd               =   5.3217552926056E-01
(PID.TID 0000.0001) %MON dynstat_eta_del2             =   2.0958501154924E-02
(PID.TID 0000.0001) %MON dynstat_uvel_max             =   1.2971104952142E-01
(PID.TID 0000.0001) %MON dynstat_uvel_min             =  -8.4503685635304E-02
(PID.TID 0000.0001) %MON dynstat_uvel_mean            =  -2.5816734012965E-04
(PID.TID 0000.0001) %MON dynstat_uvel_sd              =   8.5116494341205E-03
(PID.TID 0000.0001) %MON dynstat_uvel_del2            =   2.3567571283258E-03
(PID.TID 0000.0001) %MON dynstat_vvel_max             =   8.8597061107906E-02
(PID.TID 0000.0001) %MON dynstat_vvel_min             =  -1.1107289180823E-01
(PID.TID 0000.0001) %MON dynstat_vvel_mean            =  -1.9105381908176E-04
(PID.TID 0000.0001) %MON dynstat_vvel_sd              =   9.9422634287269E-03
(PID.TID 0000.0001) %MON dynstat_vvel_del2            =   2.8445573439261E-03
(PID.TID 0000.0001) %MON dynstat_wvel_max             =   2.3174476280998E-04
(PID.TID 0000.0001) %MON dynstat_wvel_min             =  -1.8249656824942E-04
(PID.TID 0000.0001) %MON dynstat_wvel_mean            =  -1.3505260193671E-22
(PID.TID 0000.0001) %MON dynstat_wvel_sd              =   2.4872887892688E-05
(PID.TID 0000.0001) %MON dynstat_wvel_del2            =   9.9200460799905E-06
(PID.TID 0000.0001) %MON dynstat_theta_max            =   2.9672883057089E+01
(PID.TID 0000.0001) %MON dynstat_theta_min            =  -1.9040144044521E+00
(PID.TID 0000.0001) %MON dynstat_theta_mean           =   3.6190349064988E+00
(PID.TID 0000.0001) %MON dynstat_theta_sd             =   4.4141728037677E+00
(PID.TID 0000.0001) %MON dynstat_theta_del2           =   1.4337525696474E-01
(PID.TID 0000.0001) %MON dynstat_salt_max             =   3.7438336649837E+01
(PID.TID 0000.0001) %MON dynstat_salt_min             =   2.9752248275478E+01
(PID.TID 0000.0001) %MON dynstat_salt_mean            =   3.4717956994090E+01
(PID.TID 0000.0001) %MON dynstat_salt_sd              =   2.9610199251166E-01
(PID.TID 0000.0001) %MON dynstat_salt_del2            =   2.6123222910436E-02
(PID.TID 0000.0001) %MON extforcing_qnet_max          =   4.3217993164062E+02
(PID.TID 0000.0001) %MON extforcing_qnet_min          =  -1.8422400970459E+02
(PID.TID 0000.0001) %MON extforcing_qnet_mean         =  -1.6625133603452E+01
(PID.TID 0000.0001) %MON extforcing_qnet_sd           =   1.1159198929743E+02
(PID.TID 0000.0001) %MON extforcing_qnet_del2         =   9.5132681531629E+00
(PID.TID 0000.0001) %MON extforcing_qsw_max           =   0.0000000000000E+00
(PID.TID 0000.0001) %MON extforcing_qsw_min           =   0.0000000000000E+00
(PID.TID 0000.0001) %MON extforcing_qsw_mean          =   0.0000000000000E+00
(PID.TID 0000.0001) %MON extforcing_qsw_sd            =   0.0000000000000E+00
(PID.TID 0000.0001) %MON extforcing_qsw_del2          =   0.0000000000000E+00
(PID.TID 0000.0001) %MON extforcing_empmr_max         =   8.1887607450426E-05
(PID.TID 0000.0001) %MON extforcing_empmr_min         =  -7.2590404442963E-05
(PID.TID 0000.0001) %MON extforcing_empmr_mean        =   8.3500924240109E-07
(PID.TID 0000.0001) %MON extforcing_empmr_sd          =   2.8083907977094E-05
(PID.TID 0000.0001) %MON extforcing_empmr_del2        =   3.6978590861640E-06
(PID.TID 0000.0001) %MON advcfl_uvel_max              =   4.0175104473143E-02
(PID.TID 0000.0001) %MON advcfl_vvel_max              =   2.1579681483325E-02
(PID.TID 0000.0001) %MON advcfl_wvel_max              =   7.8854681906375E-02
(PID.TID 0000.0001) %MON advcfl_W_hf_max              =   8.9230297946688E-02
(PID.TID 0000.0001) %MON pe_b_mean                    =   3.6240263069191E-04
(PID.TID 0000.0001) %MON ke_max                       =   9.3569186827276E-03
(PID.TID 0000.0001) %MON ke_mean                      =   7.7338441256877E-05
(PID.TID 0000.0001) %MON ke_vol                       =   1.3226782436723E+18
(PID.TID 0000.0001) %MON vort_r_min                   =  -2.5382507095740E-07
(PID.TID 0000.0001) %MON vort_r_max                   =   2.2560900024666E-07
(PID.TID 0000.0001) %MON vort_a_mean                  =  -2.5274807004747E-05
(PID.TID 0000.0001) %MON vort_a_sd                    =   7.3604299171610E-05
(PID.TID 0000.0001) %MON vort_p_mean                  =  -3.1845655304674E-05
(PID.TID 0000.0001) %MON vort_p_sd                    =   1.3162459327182E-04
(PID.TID 0000.0001) %MON surfExpan_theta_mean         =  -1.5181464616651E-06
(PID.TID 0000.0001) %MON surfExpan_salt_mean          =  -2.0186248606239E-07
(PID.TID 0000.0001) // =======================================================
(PID.TID 0000.0001) // End MONITOR dynamic field statistics
(PID.TID 0000.0001) // =======================================================
(PID.TID 0000.0001) // =======================================================
(PID.TID 0000.0001) // Begin MONITOR ptracer field statistics
(PID.TID 0000.0001) // =======================================================
(PID.TID 0000.0001) %MON trcstat_ptracer01_max        =   6.0542629653377E+05
(PID.TID 0000.0001) %MON trcstat_ptracer01_min        =   1.6866524289216E+03
(PID.TID 0000.0001) %MON trcstat_ptracer01_mean       =   5.9685952032768E+05
(PID.TID 0000.0001) %MON trcstat_ptracer01_sd         =   6.6996556764155E+04
(PID.TID 0000.0001) %MON trcstat_ptracer01_del2       =   1.8138783507121E+03
(PID.TID 0000.0001) // =======================================================
(PID.TID 0000.0001) // End MONITOR ptracers field statistics
(PID.TID 0000.0001) // =======================================================
time,SST,SSS,fu,fv,Q,E-P,i0,i1,a,b =   6.0480E+05  4.7561E-01  3.4527E+01 -3.8229E-02 -6.0721E-02  2.6541E+02  1.1213E-05    12     1  7.3333E-01  2.6667E-01
time,fu0,fu1,fu =   6.0480E+05 -4.5368E-02 -3.5633E-02 -3.8229E-02  7.333333333333333E-01  2.666666666666667E-01
 cg2d: Sum(rhs),rhsMax =   5.80160527336586E-02  1.35979889030778E+00
(PID.TID 0000.0001)                    cg2d_init_res =    8.63950628763597E-01
(PID.TID 0000.0001)                       cg2d_iters =   137
(PID.TID 0000.0001)                         cg2d_res =    9.26477339691427E-14
(PID.TID 0000.0001) // =======================================================
(PID.TID 0000.0001) // Begin MONITOR dynamic field statistics
(PID.TID 0000.0001) // =======================================================
(PID.TID 0000.0001) %MON time_tsnumber                =                     8
(PID.TID 0000.0001) %MON time_secondsf                =   6.9120000000000E+05
(PID.TID 0000.0001) %MON dynstat_eta_max              =   1.0560551805814E+00
(PID.TID 0000.0001) %MON dynstat_eta_min              =  -1.4263652638465E+00
(PID.TID 0000.0001) %MON dynstat_eta_mean             =  -5.4132970721106E-04
(PID.TID 0000.0001) %MON dynstat_eta_sd               =   5.2426935285259E-01
(PID.TID 0000.0001) %MON dynstat_eta_del2             =   2.0014145959474E-02
(PID.TID 0000.0001) %MON dynstat_uvel_max             =   1.4645307083907E-01
(PID.TID 0000.0001) %MON dynstat_uvel_min             =  -8.7603694078309E-02
(PID.TID 0000.0001) %MON dynstat_uvel_mean            =  -4.3630016400581E-05
(PID.TID 0000.0001) %MON dynstat_uvel_sd              =   9.8282615616378E-03
(PID.TID 0000.0001) %MON dynstat_uvel_del2            =   2.4657400189780E-03
(PID.TID 0000.0001) %MON dynstat_vvel_max             =   9.1983002629609E-02
(PID.TID 0000.0001) %MON dynstat_vvel_min             =  -1.1470071193696E-01
(PID.TID 0000.0001) %MON dynstat_vvel_mean            =  -2.9170605389693E-04
(PID.TID 0000.0001) %MON dynstat_vvel_sd              =   1.0283780242886E-02
(PID.TID 0000.0001) %MON dynstat_vvel_del2            =   2.9227168584638E-03
(PID.TID 0000.0001) %MON dynstat_wvel_max             =   2.3440950992948E-04
(PID.TID 0000.0001) %MON dynstat_wvel_min             =  -1.9228454645626E-04
(PID.TID 0000.0001) %MON dynstat_wvel_mean            =   3.9323060591082E-22
(PID.TID 0000.0001) %MON dynstat_wvel_sd              =   2.4805041773909E-05
(PID.TID 0000.0001) %MON dynstat_wvel_del2            =   9.6260968936095E-06
(PID.TID 0000.0001) %MON dynstat_theta_max            =   2.9671251539534E+01
(PID.TID 0000.0001) %MON dynstat_theta_min            =  -1.9045670275524E+00
(PID.TID 0000.0001) %MON dynstat_theta_mean           =   3.6191260543067E+00
(PID.TID 0000.0001) %MON dynstat_theta_sd             =   4.4142484098129E+00
(PID.TID 0000.0001) %MON dynstat_theta_del2           =   1.4201837055987E-01
(PID.TID 0000.0001) %MON dynstat_salt_max             =   3.7436235437047E+01
(PID.TID 0000.0001) %MON dynstat_salt_min             =   2.9750352917360E+01
(PID.TID 0000.0001) %MON dynstat_salt_mean            =   3.4717961356729E+01
(PID.TID 0000.0001) %MON dynstat_salt_sd              =   2.9611547663716E-01
(PID.TID 0000.0001) %MON dynstat_salt_del2            =   2.6078006874637E-02
(PID.TID 0000.0001) %MON extforcing_qnet_max          =   4.3322811889648E+02
(PID.TID 0000.0001) %MON extforcing_qnet_min          =  -1.8375684712728E+02
(PID.TID 0000.0001) %MON extforcing_qnet_mean         =  -1.6612621647629E+01
(PID.TID 0000.0001) %MON extforcing_qnet_sd           =   1.1139030190430E+02
(PID.TID 0000.0001) %MON extforcing_qnet_del2         =   9.5233734793557E+00
(PID.TID 0000.0001) %MON extforcing_qsw_max           =   0.0000000000000E+00
(PID.TID 0000.0001) %MON extforcing_qsw_min           =   0.0000000000000E+00
(PID.TID 0000.0001) %MON extforcing_qsw_mean          =   0.0000000000000E+00
(PID.TID 0000.0001) %MON extforcing_qsw_sd            =   0.0000000000000E+00
(PID.TID 0000.0001) %MON extforcing_qsw_del2          =   0.0000000000000E+00
(PID.TID 0000.0001) %MON extforcing_empmr_max         =   8.1889273909989E-05
(PID.TID 0000.0001) %MON extforcing_empmr_min         =  -7.2333472189712E-05
(PID.TID 0000.0001) %MON extforcing_empmr_mean        =   8.4477900014659E-07
(PID.TID 0000.0001) %MON extforcing_empmr_sd          =   2.8146998273902E-05
(PID.TID 0000.0001) %MON extforcing_empmr_del2        =   3.6997473944248E-06
(PID.TID 0000.0001) %MON advcfl_uvel_max              =   4.4553859645081E-02
(PID.TID 0000.0001) %MON advcfl_vvel_max              =   2.2284508751097E-02
(PID.TID 0000.0001) %MON advcfl_wvel_max              =   8.0512393194931E-02
(PID.TID 0000.0001) %MON advcfl_W_hf_max              =   9.1106129141633E-02
(PID.TID 0000.0001) %MON pe_b_mean                    =   3.5171476881142E-04
(PID.TID 0000.0001) %MON ke_max                       =   1.1303398259744E-02
(PID.TID 0000.0001) %MON ke_mean                      =   9.1402077910804E-05
(PID.TID 0000.0001) %MON ke_vol                       =   1.3226782436723E+18
(PID.TID 0000.0001) %MON vort_r_min                   =  -2.9533980735529E-07
(PID.TID 0000.0001) %MON vort_r_max                   =   2.4554555394905E-07
(PID.TID 0000.0001) %MON vort_a_mean                  =  -2.5274807051136E-05
(PID.TID 0000.0001) %MON vort_a_sd                    =   7.3604336485991E-05
(PID.TID 0000.0001) %MON vort_p_mean                  =  -3.1845655363123E-05
(PID.TID 0000.0001) %MON vort_p_sd                    =   1.3162445067149E-04
(PID.TID 0000.0001) %MON surfExpan_theta_mean         =  -6.8197827976798E-07
(PID.TID 0000.0001) %MON surfExpan_salt_mean          =  -1.3729334747048E-07
(PID.TID 0000.0001) // =======================================================
(PID.TID 0000.0001) // End MONITOR dynamic field statistics
(PID.TID 0000.0001) // =======================================================
(PID.TID 0000.0001) // =======================================================
(PID.TID 0000.0001) // Begin MONITOR ptracer field statistics
(PID.TID 0000.0001) // =======================================================
(PID.TID 0000.0001) %MON trcstat_ptracer01_max        =   6.9192536825297E+05
(PID.TID 0000.0001) %MON trcstat_ptracer01_min        =   2.0963508583271E+03
(PID.TID 0000.0001) %MON trcstat_ptracer01_mean       =   6.8210575996449E+05
(PID.TID 0000.0001) %MON trcstat_ptracer01_sd         =   7.6371726463406E+04
(PID.TID 0000.0001) %MON trcstat_ptracer01_del2       =   2.1801752197720E+03
(PID.TID 0000.0001) // =======================================================
(PID.TID 0000.0001) // End MONITOR ptracers field statistics
(PID.TID 0000.0001) // =======================================================
time,SST,SSS,fu,fv,Q,E-P,i0,i1,a,b =   6.9120E+05  5.3596E-01  3.4551E+01 -3.7904E-02 -6.0288E-02  2.6546E+02  1.1266E-05    12     1  7.6667E-01  2.3333E-01
time,fu0,fu1,fu =   6.9120E+05 -4.5368E-02 -3.5633E-02 -3.7904E-02  7.666666666666667E-01  2.333333333333333E-01
 cg2d: Sum(rhs),rhsMax =   7.58854041361259E-02  1.17659362901666E+00
(PID.TID 0000.0001)                    cg2d_init_res =    9.67422993798791E-01
(PID.TID 0000.0001)                       cg2d_iters =   137
(PID.TID 0000.0001)                         cg2d_res =    8.40003132899926E-14
(PID.TID 0000.0001) // =======================================================
(PID.TID 0000.0001) // Begin MONITOR dynamic field statistics
(PID.TID 0000.0001) // =======================================================
(PID.TID 0000.0001) %MON time_tsnumber                =                     9
(PID.TID 0000.0001) %MON time_secondsf                =   7.7760000000000E+05
(PID.TID 0000.0001) %MON dynstat_eta_max              =   9.7465941641034E-01
(PID.TID 0000.0001) %MON dynstat_eta_min              =  -1.3986572474062E+00
(PID.TID 0000.0001) %MON dynstat_eta_mean             =  -6.1266595134806E-04
(PID.TID 0000.0001) %MON dynstat_eta_sd               =   5.2093604316941E-01
(PID.TID 0000.0001) %MON dynstat_eta_del2             =   1.9172601510189E-02
(PID.TID 0000.0001) %MON dynstat_uvel_max             =   1.6070546505444E-01
(PID.TID 0000.0001) %MON dynstat_uvel_min             =  -8.8160909715136E-02
(PID.TID 0000.0001) %MON dynstat_uvel_mean            =   1.4944523764104E-04
(PID.TID 0000.0001) %MON dynstat_uvel_sd              =   1.1086738357995E-02
(PID.TID 0000.0001) %MON dynstat_uvel_del2            =   2.5453221911343E-03
(PID.TID 0000.0001) %MON dynstat_vvel_max             =   9.4683015783766E-02
(PID.TID 0000.0001) %MON dynstat_vvel_min             =  -1.1715877284029E-01
(PID.TID 0000.0001) %MON dynstat_vvel_mean            =  -3.0931831720571E-04
(PID.TID 0000.0001) %MON dynstat_vvel_sd              =   1.0373265690369E-02
(PID.TID 0000.0001) %MON dynstat_vvel_del2            =   2.9280826721772E-03
(PID.TID 0000.0001) %MON dynstat_wvel_max             =   2.2948274873313E-04
(PID.TID 0000.0001) %MON dynstat_wvel_min             =  -1.9651210515609E-04
(PID.TID 0000.0001) %MON dynstat_wvel_mean            =   3.7157815070901E-22
(PID.TID 0000.0001) %MON dynstat_wvel_sd              =   2.4052377291363E-05
(PID.TID 0000.0001) %MON dynstat_wvel_del2            =   9.0307879554963E-06
(PID.TID 0000.0001) %MON dynstat_theta_max            =   2.9669763067359E+01
(PID.TID 0000.0001) %MON dynstat_theta_min            =  -1.9056457937347E+00
(PID.TID 0000.0001) %MON dynstat_theta_mean           =   3.6191921718229E+00
(PID.TID 0000.0001) %MON dynstat_theta_sd             =   4.4142594950896E+00
(PID.TID 0000.0001) %MON dynstat_theta_del2           =   1.4087100427065E-01
(PID.TID 0000.0001) %MON dynstat_salt_max             =   3.7434639079352E+01
(PID.TID 0000.0001) %MON dynstat_salt_min             =   2.9749186834552E+01
(PID.TID 0000.0001) %MON dynstat_salt_mean            =   3.4717964148858E+01
(PID.TID 0000.0001) %MON dynstat_salt_sd              =   2.9612978870722E-01
(PID.TID 0000.0001) %MON dynstat_salt_del2            =   2.6047997482783E-02
(PID.TID 0000.0001) %MON extforcing_qnet_max          =   4.3427630615234E+02
(PID.TID 0000.0001) %MON extforcing_qnet_min          =  -1.8328968454997E+02
(PID.TID 0000.0001) %MON extforcing_qnet_mean         =  -1.6600109691806E+01
(PID.TID 0000.0001) %MON extforcing_qnet_sd           =   1.1119125063866E+02
(PID.TID 0000.0001) %MON extforcing_qnet_del2         =   9.5355422152042E+00
(PID.TID 0000.0001) %MON extforcing_qsw_max           =   0.0000000000000E+00
(PID.TID 0000.0001) %MON extforcing_qsw_min           =   0.0000000000000E+00
(PID.TID 0000.0001) %MON extforcing_qsw_mean          =   0.0000000000000E+00
(PID.TID 0000.0001) %MON extforcing_qsw_sd            =   0.0000000000000E+00
(PID.TID 0000.0001) %MON extforcing_qsw_del2          =   0.0000000000000E+00
(PID.TID 0000.0001) %MON extforcing_empmr_max         =   8.1890940369552E-05
(PID.TID 0000.0001) %MON extforcing_empmr_min         =  -7.2715819499081E-05
(PID.TID 0000.0001) %MON extforcing_empmr_mean        =   8.5454875789210E-07
(PID.TID 0000.0001) %MON extforcing_empmr_sd          =   2.8214283860046E-05
(PID.TID 0000.0001) %MON extforcing_empmr_del2        =   3.7026026361079E-06
(PID.TID 0000.0001) %MON advcfl_uvel_max              =   4.7880637177536E-02
(PID.TID 0000.0001) %MON advcfl_vvel_max              =   2.2762070562057E-02
(PID.TID 0000.0001) %MON advcfl_wvel_max              =   7.9729812697314E-02
(PID.TID 0000.0001) %MON advcfl_W_hf_max              =   9.0220577525908E-02
(PID.TID 0000.0001) %MON pe_b_mean                    =   3.4725668483067E-04
(PID.TID 0000.0001) %MON ke_max                       =   1.3120795320212E-02
(PID.TID 0000.0001) %MON ke_mean                      =   1.0420403458477E-04
(PID.TID 0000.0001) %MON ke_vol                       =   1.3226782436723E+18
(PID.TID 0000.0001) %MON vort_r_min                   =  -3.3599018997524E-07
(PID.TID 0000.0001) %MON vort_r_max                   =   2.6554170702009E-07
(PID.TID 0000.0001) %MON vort_a_mean                  =  -2.5274807120231E-05
(PID.TID 0000.0001) %MON vort_a_sd                    =   7.3604366960199E-05
(PID.TID 0000.0001) %MON vort_p_mean                  =  -3.1845655450180E-05
(PID.TID 0000.0001) %MON vort_p_sd                    =   1.3162429496112E-04
(PID.TID 0000.0001) %MON surfExpan_theta_mean         =  -2.1288119592230E-08
(PID.TID 0000.0001) %MON surfExpan_salt_mean          =  -9.2708395528709E-08
(PID.TID 0000.0001) // =======================================================
(PID.TID 0000.0001) // End MONITOR dynamic field statistics
(PID.TID 0000.0001) // =======================================================
(PID.TID 0000.0001) // =======================================================
(PID.TID 0000.0001) // Begin MONITOR ptracer field statistics
(PID.TID 0000.0001) // =======================================================
(PID.TID 0000.0001) %MON trcstat_ptracer01_max        =   7.7851452975920E+05
(PID.TID 0000.0001) %MON trcstat_ptracer01_min        =   2.5326087322887E+03
(PID.TID 0000.0001) %MON trcstat_ptracer01_mean       =   7.6734410576179E+05
(PID.TID 0000.0001) %MON trcstat_ptracer01_sd         =   8.5749728242521E+04
(PID.TID 0000.0001) %MON trcstat_ptracer01_del2       =   2.4850496419310E+03
(PID.TID 0000.0001) // =======================================================
(PID.TID 0000.0001) // End MONITOR ptracers field statistics
(PID.TID 0000.0001) // =======================================================
time,SST,SSS,fu,fv,Q,E-P,i0,i1,a,b =   7.7760E+05  5.9632E-01  3.4574E+01 -3.7580E-02 -5.9855E-02  2.6550E+02  1.1319E-05    12     1  8.0000E-01  2.0000E-01
time,fu0,fu1,fu =   7.7760E+05 -4.5368E-02 -3.5633E-02 -3.7580E-02  8.000000000000000E-01  2.000000000000000E-01
 cg2d: Sum(rhs),rhsMax =   8.98543717182188E-02  1.11070007221496E+00
(PID.TID 0000.0001)                    cg2d_init_res =    9.64547358509571E-01
(PID.TID 0000.0001)                       cg2d_iters =   137
(PID.TID 0000.0001)                         cg2d_res =    7.61676032562269E-14
(PID.TID 0000.0001) // =======================================================
(PID.TID 0000.0001) // Begin MONITOR dynamic field statistics
(PID.TID 0000.0001) // =======================================================
(PID.TID 0000.0001) %MON time_tsnumber                =                    10
(PID.TID 0000.0001) %MON time_secondsf                =   8.6400000000000E+05
(PID.TID 0000.0001) %MON dynstat_eta_max              =   8.6714123908773E-01
(PID.TID 0000.0001) %MON dynstat_eta_min              =  -1.3746860652029E+00
(PID.TID 0000.0001) %MON dynstat_eta_mean             =  -6.8481775787087E-04
(PID.TID 0000.0001) %MON dynstat_eta_sd               =   5.2251368602084E-01
(PID.TID 0000.0001) %MON dynstat_eta_del2             =   1.8462584801889E-02
(PID.TID 0000.0001) %MON dynstat_uvel_max             =   1.7205018431397E-01
(PID.TID 0000.0001) %MON dynstat_uvel_min             =  -8.6241379986522E-02
(PID.TID 0000.0001) %MON dynstat_uvel_mean            =   3.1142131065836E-04
(PID.TID 0000.0001) %MON dynstat_uvel_sd              =   1.2247534238938E-02
(PID.TID 0000.0001) %MON dynstat_uvel_del2            =   2.6067945260509E-03
(PID.TID 0000.0001) %MON dynstat_vvel_max             =   9.7941486111056E-02
(PID.TID 0000.0001) %MON dynstat_vvel_min             =  -1.1618128752201E-01
(PID.TID 0000.0001) %MON dynstat_vvel_mean            =  -2.6698000885076E-04
(PID.TID 0000.0001) %MON dynstat_vvel_sd              =   1.0253878042220E-02
(PID.TID 0000.0001) %MON dynstat_vvel_del2            =   2.8779798926278E-03
(PID.TID 0000.0001) %MON dynstat_wvel_max             =   2.1781552156262E-04
(PID.TID 0000.0001) %MON dynstat_wvel_min             =  -1.9513752702770E-04
(PID.TID 0000.0001) %MON dynstat_wvel_mean            =   2.1285464435677E-22
(PID.TID 0000.0001) %MON dynstat_wvel_sd              =   2.2816117760193E-05
(PID.TID 0000.0001) %MON dynstat_wvel_del2            =   8.2450486747825E-06
(PID.TID 0000.0001) %MON dynstat_theta_max            =   2.9668818771602E+01
(PID.TID 0000.0001) %MON dynstat_theta_min            =  -1.9109792736775E+00
(PID.TID 0000.0001) %MON dynstat_theta_mean           =   3.6192452312222E+00
(PID.TID 0000.0001) %MON dynstat_theta_sd             =   4.4142420869695E+00
(PID.TID 0000.0001) %MON dynstat_theta_del2           =   1.3993610454209E-01
(PID.TID 0000.0001) %MON dynstat_salt_max             =   3.7434545795537E+01
(PID.TID 0000.0001) %MON dynstat_salt_min             =   2.9748828449400E+01
(PID.TID 0000.0001) %MON dynstat_salt_mean            =   3.4717966200900E+01
(PID.TID 0000.0001) %MON dynstat_salt_sd              =   2.9614270185678E-01
(PID.TID 0000.0001) %MON dynstat_salt_del2            =   2.6029465343201E-02
(PID.TID 0000.0001) %MON extforcing_qnet_max          =   4.3532449340820E+02
(PID.TID 0000.0001) %MON extforcing_qnet_min          =  -1.8282252197266E+02
(PID.TID 0000.0001) %MON extforcing_qnet_mean         =  -1.6587597735982E+01
(PID.TID 0000.0001) %MON extforcing_qnet_sd           =   1.1099484968291E+02
(PID.TID 0000.0001) %MON extforcing_qnet_del2         =   9.5493322704987E+00
(PID.TID 0000.0001) %MON extforcing_qsw_max           =   0.0000000000000E+00
(PID.TID 0000.0001) %MON extforcing_qsw_min           =   0.0000000000000E+00
(PID.TID 0000.0001) %MON extforcing_qsw_mean          =   0.0000000000000E+00
(PID.TID 0000.0001) %MON extforcing_qsw_sd            =   0.0000000000000E+00
(PID.TID 0000.0001) %MON extforcing_qsw_del2          =   0.0000000000000E+00
(PID.TID 0000.0001) %MON extforcing_empmr_max         =   8.1892606829115E-05
(PID.TID 0000.0001) %MON extforcing_empmr_min         =  -7.3098166808450E-05
(PID.TID 0000.0001) %MON extforcing_empmr_mean        =   8.6431851563760E-07
(PID.TID 0000.0001) %MON extforcing_empmr_sd          =   2.8285734796509E-05
(PID.TID 0000.0001) %MON extforcing_empmr_del2        =   3.7064441890224E-06
(PID.TID 0000.0001) %MON advcfl_uvel_max              =   5.0058112914483E-02
(PID.TID 0000.0001) %MON advcfl_vvel_max              =   2.2572160841695E-02
(PID.TID 0000.0001) %MON advcfl_wvel_max              =   7.6758595917481E-02
(PID.TID 0000.0001) %MON advcfl_W_hf_max              =   8.6858411169782E-02
(PID.TID 0000.0001) %MON pe_b_mean                    =   3.4936330443571E-04
(PID.TID 0000.0001) %MON ke_max                       =   1.4744207751701E-02
(PID.TID 0000.0001) %MON ke_mean                      =   1.1542714249324E-04
(PID.TID 0000.0001) %MON ke_vol                       =   1.3226782436723E+18
(PID.TID 0000.0001) %MON vort_r_min                   =  -3.6986447885655E-07
(PID.TID 0000.0001) %MON vort_r_max                   =   2.8654635552040E-07
(PID.TID 0000.0001) %MON vort_a_mean                  =  -2.5274807185080E-05
(PID.TID 0000.0001) %MON vort_a_sd                    =   7.3604389246094E-05
(PID.TID 0000.0001) %MON vort_p_mean                  =  -3.1845655531889E-05
(PID.TID 0000.0001) %MON vort_p_sd                    =   1.3162413427288E-04
(PID.TID 0000.0001) %MON surfExpan_theta_mean         =   3.3018952255825E-07
(PID.TID 0000.0001) %MON surfExpan_salt_mean          =  -7.0860791020741E-08
(PID.TID 0000.0001) // =======================================================
(PID.TID 0000.0001) // End MONITOR dynamic field statistics
(PID.TID 0000.0001) // =======================================================
(PID.TID 0000.0001) // Time-average data written, t-step        10
(PID.TID 0000.0001) 
(PID.TID 0000.0001) // PTRACER time-average data written, t-step        10
(PID.TID 0000.0001) 
(PID.TID 0000.0001) // =======================================================
(PID.TID 0000.0001) // Begin MONITOR ptracer field statistics
(PID.TID 0000.0001) // =======================================================
(PID.TID 0000.0001) %MON trcstat_ptracer01_max        =   8.6524700975970E+05
(PID.TID 0000.0001) %MON trcstat_ptracer01_min        =   2.9931268659693E+03
(PID.TID 0000.0001) %MON trcstat_ptracer01_mean       =   8.5257469041146E+05
(PID.TID 0000.0001) %MON trcstat_ptracer01_sd         =   9.5123449852321E+04
(PID.TID 0000.0001) %MON trcstat_ptracer01_del2       =   2.8036082875708E+03
(PID.TID 0000.0001) // =======================================================
(PID.TID 0000.0001) // End MONITOR ptracers field statistics
(PID.TID 0000.0001) // =======================================================
time,SST,SSS,fu,fv,Q,E-P,i0,i1,a,b =   8.6400E+05  6.5667E-01  3.4598E+01 -3.7255E-02 -5.9422E-02  2.6555E+02  1.1372E-05    12     1  8.3333E-01  1.6667E-01
time,fu0,fu1,fu =   8.6400E+05 -4.5368E-02 -3.5633E-02 -3.7255E-02  8.333333333333334E-01  1.666666666666666E-01
 cg2d: Sum(rhs),rhsMax =   1.03587030497112E-01  1.06610920247852E+00
(PID.TID 0000.0001)                    cg2d_init_res =    9.24922014388089E-01
(PID.TID 0000.0001)                       cg2d_iters =   136
(PID.TID 0000.0001)                         cg2d_res =    9.61047913739400E-14
(PID.TID 0000.0001) // =======================================================
(PID.TID 0000.0001) // Begin MONITOR dynamic field statistics
(PID.TID 0000.0001) // =======================================================
(PID.TID 0000.0001) %MON time_tsnumber                =                    11
(PID.TID 0000.0001) %MON time_secondsf                =   9.5040000000000E+05
(PID.TID 0000.0001) %MON dynstat_eta_max              =   7.7201114781419E-01
(PID.TID 0000.0001) %MON dynstat_eta_min              =  -1.3568683754400E+00
(PID.TID 0000.0001) %MON dynstat_eta_mean             =  -7.5778512677941E-04
(PID.TID 0000.0001) %MON dynstat_eta_sd               =   5.2818909359377E-01
(PID.TID 0000.0001) %MON dynstat_eta_del2             =   1.7892026815905E-02
(PID.TID 0000.0001) %MON dynstat_uvel_max             =   1.8018167660258E-01
(PID.TID 0000.0001) %MON dynstat_uvel_min             =  -9.0969702997185E-02
(PID.TID 0000.0001) %MON dynstat_uvel_mean            =   4.4019523512455E-04
(PID.TID 0000.0001) %MON dynstat_uvel_sd              =   1.3275785070924E-02
(PID.TID 0000.0001) %MON dynstat_uvel_del2            =   2.6598882130770E-03
(PID.TID 0000.0001) %MON dynstat_vvel_max             =   9.9633100703145E-02
(PID.TID 0000.0001) %MON dynstat_vvel_min             =  -1.1191446810098E-01
(PID.TID 0000.0001) %MON dynstat_vvel_mean            =  -1.9198190765172E-04
(PID.TID 0000.0001) %MON dynstat_vvel_sd              =   9.9842252084283E-03
(PID.TID 0000.0001) %MON dynstat_vvel_del2            =   2.7901775723267E-03
(PID.TID 0000.0001) %MON dynstat_wvel_max             =   2.0678198173869E-04
(PID.TID 0000.0001) %MON dynstat_wvel_min             =  -1.8846123958308E-04
(PID.TID 0000.0001) %MON dynstat_wvel_mean            =  -4.0515780581013E-22
(PID.TID 0000.0001) %MON dynstat_wvel_sd              =   2.1329101899954E-05
(PID.TID 0000.0001) %MON dynstat_wvel_del2            =   7.3985109323645E-06
(PID.TID 0000.0001) %MON dynstat_theta_max            =   2.9668577253432E+01
(PID.TID 0000.0001) %MON dynstat_theta_min            =  -1.9116427210860E+00
(PID.TID 0000.0001) %MON dynstat_theta_mean           =   3.6192941619927E+00
(PID.TID 0000.0001) %MON dynstat_theta_sd             =   4.4142221435058E+00
(PID.TID 0000.0001) %MON dynstat_theta_del2           =   1.3920587287081E-01
(PID.TID 0000.0001) %MON dynstat_salt_max             =   3.7435354779677E+01
(PID.TID 0000.0001) %MON dynstat_salt_min             =   2.9749196641190E+01
(PID.TID 0000.0001) %MON dynstat_salt_mean            =   3.4717968065407E+01
(PID.TID 0000.0001) %MON dynstat_salt_sd              =   2.9615331379685E-01
(PID.TID 0000.0001) %MON dynstat_salt_del2            =   2.6021565408441E-02
(PID.TID 0000.0001) %MON extforcing_qnet_max          =   4.3637268066406E+02
(PID.TID 0000.0001) %MON extforcing_qnet_min          =  -1.8235535939535E+02
(PID.TID 0000.0001) %MON extforcing_qnet_mean         =  -1.6575085780159E+01
(PID.TID 0000.0001) %MON extforcing_qnet_sd           =   1.1080111313050E+02
(PID.TID 0000.0001) %MON extforcing_qnet_del2         =   9.5645523805341E+00
(PID.TID 0000.0001) %MON extforcing_qsw_max           =   0.0000000000000E+00
(PID.TID 0000.0001) %MON extforcing_qsw_min           =   0.0000000000000E+00
(PID.TID 0000.0001) %MON extforcing_qsw_mean          =   0.0000000000000E+00
(PID.TID 0000.0001) %MON extforcing_qsw_sd            =   0.0000000000000E+00
(PID.TID 0000.0001) %MON extforcing_qsw_del2          =   0.0000000000000E+00
(PID.TID 0000.0001) %MON extforcing_empmr_max         =   8.1894273288678E-05
(PID.TID 0000.0001) %MON extforcing_empmr_min         =  -7.3480514117819E-05
(PID.TID 0000.0001) %MON extforcing_empmr_mean        =   8.7408827338311E-07
(PID.TID 0000.0001) %MON extforcing_empmr_sd          =   2.8361319601892E-05
(PID.TID 0000.0001) %MON extforcing_empmr_del2        =   3.7114471432806E-06
(PID.TID 0000.0001) %MON advcfl_uvel_max              =   5.2266656892312E-02
(PID.TID 0000.0001) %MON advcfl_vvel_max              =   2.1743186259744E-02
(PID.TID 0000.0001) %MON advcfl_wvel_max              =   7.1901252308810E-02
(PID.TID 0000.0001) %MON advcfl_W_hf_max              =   8.1361943402075E-02
(PID.TID 0000.0001) %MON pe_b_mean                    =   3.5699402944220E-04
(PID.TID 0000.0001) %MON ke_max                       =   1.6122547073789E-02
(PID.TID 0000.0001) %MON ke_mean                      =   1.2492887404576E-04
(PID.TID 0000.0001) %MON ke_vol                       =   1.3226782436723E+18
(PID.TID 0000.0001) %MON vort_r_min                   =  -3.9568799147162E-07
(PID.TID 0000.0001) %MON vort_r_max                   =   3.1307131340467E-07
(PID.TID 0000.0001) %MON vort_a_mean                  =  -2.5274807222525E-05
(PID.TID 0000.0001) %MON vort_a_sd                    =   7.3604403779297E-05
(PID.TID 0000.0001) %MON vort_p_mean                  =  -3.1845655579069E-05
(PID.TID 0000.0001) %MON vort_p_sd                    =   1.3162398091696E-04
(PID.TID 0000.0001) %MON surfExpan_theta_mean         =   4.5417021629789E-07
(PID.TID 0000.0001) %MON surfExpan_salt_mean          =  -6.3729803259554E-08
(PID.TID 0000.0001) // =======================================================
(PID.TID 0000.0001) // End MONITOR dynamic field statistics
(PID.TID 0000.0001) // =======================================================
(PID.TID 0000.0001) // =======================================================
(PID.TID 0000.0001) // Begin MONITOR ptracer field statistics
(PID.TID 0000.0001) // =======================================================
(PID.TID 0000.0001) %MON trcstat_ptracer01_max        =   9.5196459950902E+05
(PID.TID 0000.0001) %MON trcstat_ptracer01_min        =   3.4752785764630E+03
(PID.TID 0000.0001) %MON trcstat_ptracer01_mean       =   9.3779727770696E+05
(PID.TID 0000.0001) %MON trcstat_ptracer01_sd         =   1.0446251873569E+05
(PID.TID 0000.0001) %MON trcstat_ptracer01_del2       =   3.1566863448382E+03
(PID.TID 0000.0001) // =======================================================
(PID.TID 0000.0001) // End MONITOR ptracers field statistics
(PID.TID 0000.0001) // =======================================================
time,SST,SSS,fu,fv,Q,E-P,i0,i1,a,b =   9.5040E+05  7.1702E-01  3.4621E+01 -3.6931E-02 -5.8989E-02  2.6559E+02  1.1425E-05    12     1  8.6667E-01  1.3333E-01
time,fu0,fu1,fu =   9.5040E+05 -4.5368E-02 -3.5633E-02 -3.6931E-02  8.666666666666667E-01  1.333333333333333E-01
 cg2d: Sum(rhs),rhsMax =   1.16121980280173E-01  1.04362473574541E+00
(PID.TID 0000.0001)                    cg2d_init_res =    8.57913497405538E-01
(PID.TID 0000.0001)                       cg2d_iters =   136
(PID.TID 0000.0001)                         cg2d_res =    8.65142096158929E-14
(PID.TID 0000.0001) // =======================================================
(PID.TID 0000.0001) // Begin MONITOR dynamic field statistics
(PID.TID 0000.0001) // =======================================================
(PID.TID 0000.0001) %MON time_tsnumber                =                    12
(PID.TID 0000.0001) %MON time_secondsf                =   1.0368000000000E+06
(PID.TID 0000.0001) %MON dynstat_eta_max              =   7.4007705308083E-01
(PID.TID 0000.0001) %MON dynstat_eta_min              =  -1.3744225908020E+00
(PID.TID 0000.0001) %MON dynstat_eta_mean             =  -8.3156805807361E-04
(PID.TID 0000.0001) %MON dynstat_eta_sd               =   5.3657448109635E-01
(PID.TID 0000.0001) %MON dynstat_eta_del2             =   1.7499172411909E-02
(PID.TID 0000.0001) %MON dynstat_uvel_max             =   1.8495516340872E-01
(PID.TID 0000.0001) %MON dynstat_uvel_min             =  -9.5924421740530E-02
(PID.TID 0000.0001) %MON dynstat_uvel_mean            =   5.4031943749885E-04
(PID.TID 0000.0001) %MON dynstat_uvel_sd              =   1.4142587624003E-02
(PID.TID 0000.0001) %MON dynstat_uvel_del2            =   2.7085311312225E-03
(PID.TID 0000.0001) %MON dynstat_vvel_max             =   1.0428483575193E-01
(PID.TID 0000.0001) %MON dynstat_vvel_min             =  -1.0462729729744E-01
(PID.TID 0000.0001) %MON dynstat_vvel_mean            =  -1.0807249874434E-04
(PID.TID 0000.0001) %MON dynstat_vvel_sd              =   9.6350301780040E-03
(PID.TID 0000.0001) %MON dynstat_vvel_del2            =   2.6863618194901E-03
(PID.TID 0000.0001) %MON dynstat_wvel_max             =   1.9376769822515E-04
(PID.TID 0000.0001) %MON dynstat_wvel_min             =  -1.8759020652284E-04
(PID.TID 0000.0001) %MON dynstat_wvel_mean            =   1.1743704516236E-23
(PID.TID 0000.0001) %MON dynstat_wvel_sd              =   1.9838166677431E-05
(PID.TID 0000.0001) %MON dynstat_wvel_del2            =   6.6363625403395E-06
(PID.TID 0000.0001) %MON dynstat_theta_max            =   2.9669027515079E+01
(PID.TID 0000.0001) %MON dynstat_theta_min            =  -1.9117684504187E+00
(PID.TID 0000.0001) %MON dynstat_theta_mean           =   3.6193431513799E+00
(PID.TID 0000.0001) %MON dynstat_theta_sd             =   4.4142103074467E+00
(PID.TID 0000.0001) %MON dynstat_theta_del2           =   1.3866317321341E-01
(PID.TID 0000.0001) %MON dynstat_salt_max             =   3.7436068698365E+01
(PID.TID 0000.0001) %MON dynstat_salt_min             =   2.9750147312852E+01
(PID.TID 0000.0001) %MON dynstat_salt_mean            =   3.4717969970969E+01
(PID.TID 0000.0001) %MON dynstat_salt_sd              =   2.9616201431554E-01
(PID.TID 0000.0001) %MON dynstat_salt_del2            =   2.6023219353777E-02
(PID.TID 0000.0001) %MON extforcing_qnet_max          =   4.3742086791992E+02
(PID.TID 0000.0001) %MON extforcing_qnet_min          =  -1.8188829345703E+02
(PID.TID 0000.0001) %MON extforcing_qnet_mean         =  -1.6562573824336E+01
(PID.TID 0000.0001) %MON extforcing_qnet_sd           =   1.1061005498176E+02
(PID.TID 0000.0001) %MON extforcing_qnet_del2         =   9.5812729134055E+00
(PID.TID 0000.0001) %MON extforcing_qsw_max           =   0.0000000000000E+00
(PID.TID 0000.0001) %MON extforcing_qsw_min           =   0.0000000000000E+00
(PID.TID 0000.0001) %MON extforcing_qsw_mean          =   0.0000000000000E+00
(PID.TID 0000.0001) %MON extforcing_qsw_sd            =   0.0000000000000E+00
(PID.TID 0000.0001) %MON extforcing_qsw_del2          =   0.0000000000000E+00
(PID.TID 0000.0001) %MON extforcing_empmr_max         =   8.1895939748241E-05
(PID.TID 0000.0001) %MON extforcing_empmr_min         =  -7.3862861427187E-05
(PID.TID 0000.0001) %MON extforcing_empmr_mean        =   8.8385803112861E-07
(PID.TID 0000.0001) %MON extforcing_empmr_sd          =   2.8441005317708E-05
(PID.TID 0000.0001) %MON extforcing_empmr_del2        =   3.7173095650831E-06
(PID.TID 0000.0001) %MON advcfl_uvel_max              =   5.3653987104701E-02
(PID.TID 0000.0001) %MON advcfl_vvel_max              =   2.0327405844785E-02
(PID.TID 0000.0001) %MON advcfl_wvel_max              =   6.6920177122540E-02
(PID.TID 0000.0001) %MON advcfl_W_hf_max              =   7.5725463586032E-02
(PID.TID 0000.0001) %MON pe_b_mean                    =   3.6841921406470E-04
(PID.TID 0000.0001) %MON ke_max                       =   1.7216707041720E-02
(PID.TID 0000.0001) %MON ke_mean                      =   1.3268387889351E-04
(PID.TID 0000.0001) %MON ke_vol                       =   1.3226782436723E+18
(PID.TID 0000.0001) %MON vort_r_min                   =  -4.1267461955332E-07
(PID.TID 0000.0001) %MON vort_r_max                   =   3.3452550159693E-07
(PID.TID 0000.0001) %MON vort_a_mean                  =  -2.5274807220132E-05
(PID.TID 0000.0001) %MON vort_a_sd                    =   7.3604412371813E-05
(PID.TID 0000.0001) %MON vort_p_mean                  =  -3.1845655576053E-05
(PID.TID 0000.0001) %MON vort_p_sd                    =   1.3162384895954E-04
(PID.TID 0000.0001) %MON surfExpan_theta_mean         =   4.7465749394859E-07
(PID.TID 0000.0001) %MON surfExpan_salt_mean          =  -6.1524428028474E-08
(PID.TID 0000.0001) // =======================================================
(PID.TID 0000.0001) // End MONITOR dynamic field statistics
(PID.TID 0000.0001) // =======================================================
(PID.TID 0000.0001) // =======================================================
(PID.TID 0000.0001) // Begin MONITOR ptracer field statistics
(PID.TID 0000.0001) // =======================================================
(PID.TID 0000.0001) %MON trcstat_ptracer01_max        =   1.0385714870913E+06
(PID.TID 0000.0001) %MON trcstat_ptracer01_min        =   3.9771674113798E+03
(PID.TID 0000.0001) %MON trcstat_ptracer01_mean       =   1.0230109163726E+06
(PID.TID 0000.0001) %MON trcstat_ptracer01_sd         =   1.1381521193831E+05
(PID.TID 0000.0001) %MON trcstat_ptracer01_del2       =   3.5407515237659E+03
(PID.TID 0000.0001) // =======================================================
(PID.TID 0000.0001) // End MONITOR ptracers field statistics
(PID.TID 0000.0001) // =======================================================
time,SST,SSS,fu,fv,Q,E-P,i0,i1,a,b =   1.0368E+06  7.7737E-01  3.4644E+01 -3.6606E-02 -5.8556E-02  2.6564E+02  1.1478E-05    12     1  9.0000E-01  1.0000E-01
time,fu0,fu1,fu =   1.0368E+06 -4.5368E-02 -3.5633E-02 -3.6606E-02  9.000000000000000E-01  9.999999999999998E-02
 cg2d: Sum(rhs),rhsMax =   1.26670225701561E-01  1.04254421247169E+00
(PID.TID 0000.0001)                    cg2d_init_res =    7.78019327759841E-01
(PID.TID 0000.0001)                       cg2d_iters =   135
(PID.TID 0000.0001)                         cg2d_res =    9.43722152153599E-14
(PID.TID 0000.0001) // =======================================================
(PID.TID 0000.0001) // Begin MONITOR dynamic field statistics
(PID.TID 0000.0001) // =======================================================
(PID.TID 0000.0001) %MON time_tsnumber                =                    13
(PID.TID 0000.0001) %MON time_secondsf                =   1.1232000000000E+06
(PID.TID 0000.0001) %MON dynstat_eta_max              =   7.3890169017294E-01
(PID.TID 0000.0001) %MON dynstat_eta_min              =  -1.4033357351310E+00
(PID.TID 0000.0001) %MON dynstat_eta_mean             =  -9.0616655175366E-04
(PID.TID 0000.0001) %MON dynstat_eta_sd               =   5.4622063774658E-01
(PID.TID 0000.0001) %MON dynstat_eta_del2             =   1.7263878333385E-02
(PID.TID 0000.0001) %MON dynstat_uvel_max             =   1.9037499962672E-01
(PID.TID 0000.0001) %MON dynstat_uvel_min             =  -1.0046986408972E-01
(PID.TID 0000.0001) %MON dynstat_uvel_mean            =   6.2079060828877E-04
(PID.TID 0000.0001) %MON dynstat_uvel_sd              =   1.4825969276836E-02
(PID.TID 0000.0001) %MON dynstat_uvel_del2            =   2.7525145662957E-03
(PID.TID 0000.0001) %MON dynstat_vvel_max             =   1.0993263609050E-01
(PID.TID 0000.0001) %MON dynstat_vvel_min             =  -9.9513155912970E-02
(PID.TID 0000.0001) %MON dynstat_vvel_mean            =  -3.1898412799905E-05
(PID.TID 0000.0001) %MON dynstat_vvel_sd              =   9.2827575371815E-03
(PID.TID 0000.0001) %MON dynstat_vvel_del2            =   2.5821852007957E-03
(PID.TID 0000.0001) %MON dynstat_wvel_max             =   1.7615608553337E-04
(PID.TID 0000.0001) %MON dynstat_wvel_min             =  -1.9175412675583E-04
(PID.TID 0000.0001) %MON dynstat_wvel_mean            =   0.0000000000000E+00
(PID.TID 0000.0001) %MON dynstat_wvel_sd              =   1.8574020541190E-05
(PID.TID 0000.0001) %MON dynstat_wvel_del2            =   6.1285862595705E-06
(PID.TID 0000.0001) %MON dynstat_theta_max            =   2.9670170869175E+01
(PID.TID 0000.0001) %MON dynstat_theta_min            =  -1.9112933986183E+00
(PID.TID 0000.0001) %MON dynstat_theta_mean           =   3.6193930800777E+00
(PID.TID 0000.0001) %MON dynstat_theta_sd             =   4.4142062397957E+00
(PID.TID 0000.0001) %MON dynstat_theta_del2           =   1.3825351668144E-01
(PID.TID 0000.0001) %MON dynstat_salt_max             =   3.7436753383396E+01
(PID.TID 0000.0001) %MON dynstat_salt_min             =   2.9751554741287E+01
(PID.TID 0000.0001) %MON dynstat_salt_mean            =   3.4717971906782E+01
(PID.TID 0000.0001) %MON dynstat_salt_sd              =   2.9616888235731E-01
(PID.TID 0000.0001) %MON dynstat_salt_del2            =   2.6030853470121E-02
(PID.TID 0000.0001) %MON extforcing_qnet_max          =   4.3846905517578E+02
(PID.TID 0000.0001) %MON extforcing_qnet_min          =  -1.8174754943848E+02
(PID.TID 0000.0001) %MON extforcing_qnet_mean         =  -1.6550061868513E+01
(PID.TID 0000.0001) %MON extforcing_qnet_sd           =   1.1042168913970E+02
(PID.TID 0000.0001) %MON extforcing_qnet_del2         =   9.6008090278912E+00
(PID.TID 0000.0001) %MON extforcing_qsw_max           =   0.0000000000000E+00
(PID.TID 0000.0001) %MON extforcing_qsw_min           =   0.0000000000000E+00
(PID.TID 0000.0001) %MON extforcing_qsw_mean          =   0.0000000000000E+00
(PID.TID 0000.0001) %MON extforcing_qsw_sd            =   0.0000000000000E+00
(PID.TID 0000.0001) %MON extforcing_qsw_del2          =   0.0000000000000E+00
(PID.TID 0000.0001) %MON extforcing_empmr_max         =   8.1897606207804E-05
(PID.TID 0000.0001) %MON extforcing_empmr_min         =  -7.4245208736556E-05
(PID.TID 0000.0001) %MON extforcing_empmr_mean        =   8.9362778887411E-07
(PID.TID 0000.0001) %MON extforcing_empmr_sd          =   2.8524757575519E-05
(PID.TID 0000.0001) %MON extforcing_empmr_del2        =   3.7245343549653E-06
(PID.TID 0000.0001) %MON advcfl_uvel_max              =   5.4685555233317E-02
(PID.TID 0000.0001) %MON advcfl_vvel_max              =   2.1358148084873E-02
(PID.TID 0000.0001) %MON advcfl_wvel_max              =   6.1663170081283E-02
(PID.TID 0000.0001) %MON advcfl_W_hf_max              =   6.9776745091978E-02
(PID.TID 0000.0001) %MON pe_b_mean                    =   3.8178477499265E-04
(PID.TID 0000.0001) %MON ke_max                       =   1.7998914977797E-02
(PID.TID 0000.0001) %MON ke_mean                      =   1.3872356739581E-04
(PID.TID 0000.0001) %MON ke_vol                       =   1.3226782436723E+18
(PID.TID 0000.0001) %MON vort_r_min                   =  -4.2053072996907E-07
(PID.TID 0000.0001) %MON vort_r_max                   =   3.5028851457189E-07
(PID.TID 0000.0001) %MON vort_a_mean                  =  -2.5274807179944E-05
(PID.TID 0000.0001) %MON vort_a_sd                    =   7.3604417606060E-05
(PID.TID 0000.0001) %MON vort_p_mean                  =  -3.1845655525418E-05
(PID.TID 0000.0001) %MON vort_p_sd                    =   1.3162375237956E-04
(PID.TID 0000.0001) %MON surfExpan_theta_mean         =   4.7372799946709E-07
(PID.TID 0000.0001) %MON surfExpan_salt_mean          =  -5.7253815496066E-08
(PID.TID 0000.0001) // =======================================================
(PID.TID 0000.0001) // End MONITOR dynamic field statistics
(PID.TID 0000.0001) // =======================================================
(PID.TID 0000.0001) // =======================================================
(PID.TID 0000.0001) // Begin MONITOR ptracer field statistics
(PID.TID 0000.0001) // =======================================================
(PID.TID 0000.0001) %MON trcstat_ptracer01_max        =   1.1251133902875E+06
(PID.TID 0000.0001) %MON trcstat_ptracer01_min        =   4.4978152088564E+03
(PID.TID 0000.0001) %MON trcstat_ptracer01_mean       =   1.1082153326406E+06
(PID.TID 0000.0001) %MON trcstat_ptracer01_sd         =   1.2314191123015E+05
(PID.TID 0000.0001) %MON trcstat_ptracer01_del2       =   3.9405098903511E+03
(PID.TID 0000.0001) // =======================================================
(PID.TID 0000.0001) // End MONITOR ptracers field statistics
(PID.TID 0000.0001) // =======================================================
time,SST,SSS,fu,fv,Q,E-P,i0,i1,a,b =   1.1232E+06  8.3772E-01  3.4668E+01 -3.6282E-02 -5.8123E-02  2.6568E+02  1.1531E-05    12     1  9.3333E-01  6.6667E-02
time,fu0,fu1,fu =   1.1232E+06 -4.5368E-02 -3.5633E-02 -3.6282E-02  9.333333333333333E-01  6.666666666666665E-02
 cg2d: Sum(rhs),rhsMax =   1.34842099096393E-01  1.06086827904303E+00
(PID.TID 0000.0001)                    cg2d_init_res =    7.01097877908044E-01
(PID.TID 0000.0001)                       cg2d_iters =   132
(PID.TID 0000.0001)                         cg2d_res =    9.71460737821109E-14
(PID.TID 0000.0001) // =======================================================
(PID.TID 0000.0001) // Begin MONITOR dynamic field statistics
(PID.TID 0000.0001) // =======================================================
(PID.TID 0000.0001) %MON time_tsnumber                =                    14
(PID.TID 0000.0001) %MON time_secondsf                =   1.2096000000000E+06
(PID.TID 0000.0001) %MON dynstat_eta_max              =   7.5995539750827E-01
(PID.TID 0000.0001) %MON dynstat_eta_min              =  -1.4392538008109E+00
(PID.TID 0000.0001) %MON dynstat_eta_mean             =  -9.8158060781921E-04
(PID.TID 0000.0001) %MON dynstat_eta_sd               =   5.5594432292675E-01
(PID.TID 0000.0001) %MON dynstat_eta_del2             =   1.7183315038190E-02
(PID.TID 0000.0001) %MON dynstat_uvel_max             =   1.9217835892114E-01
(PID.TID 0000.0001) %MON dynstat_uvel_min             =  -1.0427644554162E-01
(PID.TID 0000.0001) %MON dynstat_uvel_mean            =   6.9213834359909E-04
(PID.TID 0000.0001) %MON dynstat_uvel_sd              =   1.5311729727469E-02
(PID.TID 0000.0001) %MON dynstat_uvel_del2            =   2.7881201908104E-03
(PID.TID 0000.0001) %MON dynstat_vvel_max             =   1.1490455205564E-01
(PID.TID 0000.0001) %MON dynstat_vvel_min             =  -1.0295242884147E-01
(PID.TID 0000.0001) %MON dynstat_vvel_mean            =   2.7390262314280E-05
(PID.TID 0000.0001) %MON dynstat_vvel_sd              =   8.9993714029122E-03
(PID.TID 0000.0001) %MON dynstat_vvel_del2            =   2.5044260723633E-03
(PID.TID 0000.0001) %MON dynstat_wvel_max             =   1.5465435902276E-04
(PID.TID 0000.0001) %MON dynstat_wvel_min             =  -1.9392534089098E-04
(PID.TID 0000.0001) %MON dynstat_wvel_mean            =   2.4661779484095E-22
(PID.TID 0000.0001) %MON dynstat_wvel_sd              =   1.7705270670430E-05
(PID.TID 0000.0001) %MON dynstat_wvel_del2            =   5.9498531213624E-06
(PID.TID 0000.0001) %MON dynstat_theta_max            =   2.9672136047572E+01
(PID.TID 0000.0001) %MON dynstat_theta_min            =  -1.9118913678442E+00
(PID.TID 0000.0001) %MON dynstat_theta_mean           =   3.6194434657253E+00
(PID.TID 0000.0001) %MON dynstat_theta_sd             =   4.4142064009001E+00
(PID.TID 0000.0001) %MON dynstat_theta_del2           =   1.3795004345514E-01
(PID.TID 0000.0001) %MON dynstat_salt_max             =   3.7437463209355E+01
(PID.TID 0000.0001) %MON dynstat_salt_min             =   2.9753350754081E+01
(PID.TID 0000.0001) %MON dynstat_salt_mean            =   3.4717973734269E+01
(PID.TID 0000.0001) %MON dynstat_salt_sd              =   2.9617408589255E-01
(PID.TID 0000.0001) %MON dynstat_salt_del2            =   2.6049709309519E-02
(PID.TID 0000.0001) %MON extforcing_qnet_max          =   4.3951724243164E+02
(PID.TID 0000.0001) %MON extforcing_qnet_min          =  -1.8160680541992E+02
(PID.TID 0000.0001) %MON extforcing_qnet_mean         =  -1.6537549912690E+01
(PID.TID 0000.0001) %MON extforcing_qnet_sd           =   1.1023602940575E+02
(PID.TID 0000.0001) %MON extforcing_qnet_del2         =   9.6214528970052E+00
(PID.TID 0000.0001) %MON extforcing_qsw_max           =   0.0000000000000E+00
(PID.TID 0000.0001) %MON extforcing_qsw_min           =   0.0000000000000E+00
(PID.TID 0000.0001) %MON extforcing_qsw_mean          =   0.0000000000000E+00
(PID.TID 0000.0001) %MON extforcing_qsw_sd            =   0.0000000000000E+00
(PID.TID 0000.0001) %MON extforcing_qsw_del2          =   0.0000000000000E+00
(PID.TID 0000.0001) %MON extforcing_empmr_max         =   8.1966015841317E-05
(PID.TID 0000.0001) %MON extforcing_empmr_min         =  -7.4627556045925E-05
(PID.TID 0000.0001) %MON extforcing_empmr_mean        =   9.0339754661962E-07
(PID.TID 0000.0001) %MON extforcing_empmr_sd          =   2.8612540665613E-05
(PID.TID 0000.0001) %MON extforcing_empmr_del2        =   3.7326534000636E-06
(PID.TID 0000.0001) %MON advcfl_uvel_max              =   5.4481176825169E-02
(PID.TID 0000.0001) %MON advcfl_vvel_max              =   2.2324111616954E-02
(PID.TID 0000.0001) %MON advcfl_wvel_max              =   5.9170695057601E-02
(PID.TID 0000.0001) %MON advcfl_W_hf_max              =   6.5334309126101E-02
(PID.TID 0000.0001) %MON pe_b_mean                    =   3.9549878489389E-04
(PID.TID 0000.0001) %MON ke_max                       =   1.8453404118039E-02
(PID.TID 0000.0001) %MON ke_mean                      =   1.4309110941508E-04
(PID.TID 0000.0001) %MON ke_vol                       =   1.3226782436723E+18
(PID.TID 0000.0001) %MON vort_r_min                   =  -4.1943322187729E-07
(PID.TID 0000.0001) %MON vort_r_max                   =   3.5999113190904E-07
(PID.TID 0000.0001) %MON vort_a_mean                  =  -2.5274807115384E-05
(PID.TID 0000.0001) %MON vort_a_sd                    =   7.3604422190708E-05
(PID.TID 0000.0001) %MON vort_p_mean                  =  -3.1845655444073E-05
(PID.TID 0000.0001) %MON vort_p_sd                    =   1.3162370248450E-04
(PID.TID 0000.0001) %MON surfExpan_theta_mean         =   4.7876170165975E-07
(PID.TID 0000.0001) %MON surfExpan_salt_mean          =  -4.7849573223237E-08
(PID.TID 0000.0001) // =======================================================
(PID.TID 0000.0001) // End MONITOR dynamic field statistics
(PID.TID 0000.0001) // =======================================================
(PID.TID 0000.0001) // =======================================================
(PID.TID 0000.0001) // Begin MONITOR ptracer field statistics
(PID.TID 0000.0001) // =======================================================
(PID.TID 0000.0001) %MON trcstat_ptracer01_max        =   1.2116169787703E+06
(PID.TID 0000.0001) %MON trcstat_ptracer01_min        =   5.0243732011800E+03
(PID.TID 0000.0001) %MON trcstat_ptracer01_mean       =   1.1934099870909E+06
(PID.TID 0000.0001) %MON trcstat_ptracer01_sd         =   1.3243800905172E+05
(PID.TID 0000.0001) %MON trcstat_ptracer01_del2       =   4.4291242613921E+03
(PID.TID 0000.0001) // =======================================================
(PID.TID 0000.0001) // End MONITOR ptracers field statistics
(PID.TID 0000.0001) // =======================================================
time,SST,SSS,fu,fv,Q,E-P,i0,i1,a,b =   1.2096E+06  8.9807E-01  3.4691E+01 -3.5957E-02 -5.7690E-02  2.6573E+02  1.1584E-05    12     1  9.6667E-01  3.3333E-02
time,fu0,fu1,fu =   1.2096E+06 -4.5368E-02 -3.5633E-02 -3.5957E-02  9.666666666666667E-01  3.333333333333333E-02
 cg2d: Sum(rhs),rhsMax =   1.40717656608455E-01  1.09551963441878E+00
(PID.TID 0000.0001)                    cg2d_init_res =    6.38004957327772E-01
(PID.TID 0000.0001)                       cg2d_iters =   132
(PID.TID 0000.0001)                         cg2d_res =    9.16596857731523E-14
(PID.TID 0000.0001) // =======================================================
(PID.TID 0000.0001) // Begin MONITOR dynamic field statistics
(PID.TID 0000.0001) // =======================================================
(PID.TID 0000.0001) %MON time_tsnumber                =                    15
(PID.TID 0000.0001) %MON time_secondsf                =   1.2960000000000E+06
(PID.TID 0000.0001) %MON dynstat_eta_max              =   7.9479546779546E-01
(PID.TID 0000.0001) %MON dynstat_eta_min              =  -1.4786256585310E+00
(PID.TID 0000.0001) %MON dynstat_eta_mean             =  -1.0578102262706E-03
(PID.TID 0000.0001) %MON dynstat_eta_sd               =   5.6494424691769E-01
(PID.TID 0000.0001) %MON dynstat_eta_del2             =   1.7183555349351E-02
(PID.TID 0000.0001) %MON dynstat_uvel_max             =   1.9037883988267E-01
(PID.TID 0000.0001) %MON dynstat_uvel_min             =  -1.0707649465744E-01
(PID.TID 0000.0001) %MON dynstat_uvel_mean            =   7.6351556303622E-04
(PID.TID 0000.0001) %MON dynstat_uvel_sd              =   1.5594232590353E-02
(PID.TID 0000.0001) %MON dynstat_uvel_del2            =   2.8148516524303E-03
(PID.TID 0000.0001) %MON dynstat_vvel_max             =   1.1918969490095E-01
(PID.TID 0000.0001) %MON dynstat_vvel_min             =  -1.0569025286260E-01
(PID.TID 0000.0001) %MON dynstat_vvel_mean            =   6.6785859407732E-05
(PID.TID 0000.0001) %MON dynstat_vvel_sd              =   8.8385974985878E-03
(PID.TID 0000.0001) %MON dynstat_vvel_del2            =   2.4633236491843E-03
(PID.TID 0000.0001) %MON dynstat_wvel_max             =   1.5502571219442E-04
(PID.TID 0000.0001) %MON dynstat_wvel_min             =  -1.9414654686221E-04
(PID.TID 0000.0001) %MON dynstat_wvel_mean            =  -3.1708002193836E-22
(PID.TID 0000.0001) %MON dynstat_wvel_sd              =   1.7291255260737E-05
(PID.TID 0000.0001) %MON dynstat_wvel_del2            =   6.0197524131941E-06
(PID.TID 0000.0001) %MON dynstat_theta_max            =   2.9675187153643E+01
(PID.TID 0000.0001) %MON dynstat_theta_min            =  -1.9124584411249E+00
(PID.TID 0000.0001) %MON dynstat_theta_mean           =   3.6194938972893E+00
(PID.TID 0000.0001) %MON dynstat_theta_sd             =   4.4142098905948E+00
(PID.TID 0000.0001) %MON dynstat_theta_del2           =   1.3772641693343E-01
(PID.TID 0000.0001) %MON dynstat_salt_max             =   3.7438238811263E+01
(PID.TID 0000.0001) %MON dynstat_salt_min             =   2.9755523656487E+01
(PID.TID 0000.0001) %MON dynstat_salt_mean            =   3.4717975295817E+01
(PID.TID 0000.0001) %MON dynstat_salt_sd              =   2.9617890149858E-01
(PID.TID 0000.0001) %MON dynstat_salt_del2            =   2.6064641781325E-02
(PID.TID 0000.0001) %MON extforcing_qnet_max          =   4.4056542968750E+02
(PID.TID 0000.0001) %MON extforcing_qnet_min          =  -1.8146606140137E+02
(PID.TID 0000.0001) %MON extforcing_qnet_mean         =  -1.6525037956867E+01
(PID.TID 0000.0001) %MON extforcing_qnet_sd           =   1.1005308947553E+02
(PID.TID 0000.0001) %MON extforcing_qnet_del2         =   9.6438151725511E+00
(PID.TID 0000.0001) %MON extforcing_qsw_max           =   0.0000000000000E+00
(PID.TID 0000.0001) %MON extforcing_qsw_min           =   0.0000000000000E+00
(PID.TID 0000.0001) %MON extforcing_qsw_mean          =   0.0000000000000E+00
(PID.TID 0000.0001) %MON extforcing_qsw_sd            =   0.0000000000000E+00
(PID.TID 0000.0001) %MON extforcing_qsw_del2          =   0.0000000000000E+00
(PID.TID 0000.0001) %MON extforcing_empmr_max         =   8.2070127405132E-05
(PID.TID 0000.0001) %MON extforcing_empmr_min         =  -7.5009903355294E-05
(PID.TID 0000.0001) %MON extforcing_empmr_mean        =   9.1316730436513E-07
(PID.TID 0000.0001) %MON extforcing_empmr_sd          =   2.8704317606931E-05
(PID.TID 0000.0001) %MON extforcing_empmr_del2        =   3.7417550447287E-06
(PID.TID 0000.0001) %MON advcfl_uvel_max              =   5.3245677087658E-02
(PID.TID 0000.0001) %MON advcfl_vvel_max              =   2.3156646146369E-02
(PID.TID 0000.0001) %MON advcfl_wvel_max              =   5.9172945470570E-02
(PID.TID 0000.0001) %MON advcfl_W_hf_max              =   6.5336793957088E-02
(PID.TID 0000.0001) %MON pe_b_mean                    =   4.0840768306642E-04
(PID.TID 0000.0001) %MON ke_max                       =   1.8577073972527E-02
(PID.TID 0000.0001) %MON ke_mean                      =   1.4581909739629E-04
(PID.TID 0000.0001) %MON ke_vol                       =   1.3226782436723E+18
(PID.TID 0000.0001) %MON vort_r_min                   =  -4.0998818830621E-07
(PID.TID 0000.0001) %MON vort_r_max                   =   3.7312513039693E-07
(PID.TID 0000.0001) %MON vort_a_mean                  =  -2.5274807045623E-05
(PID.TID 0000.0001) %MON vort_a_sd                    =   7.3604428362566E-05
(PID.TID 0000.0001) %MON vort_p_mean                  =  -3.1845655356176E-05
(PID.TID 0000.0001) %MON vort_p_sd                    =   1.3162370628771E-04
(PID.TID 0000.0001) %MON surfExpan_theta_mean         =   4.8358139274827E-07
(PID.TID 0000.0001) %MON surfExpan_salt_mean          =  -3.3288895564215E-08
(PID.TID 0000.0001) // =======================================================
(PID.TID 0000.0001) // End MONITOR dynamic field statistics
(PID.TID 0000.0001) // =======================================================
(PID.TID 0000.0001) // =======================================================
(PID.TID 0000.0001) // Begin MONITOR ptracer field statistics
(PID.TID 0000.0001) // =======================================================
(PID.TID 0000.0001) %MON trcstat_ptracer01_max        =   1.2981007126331E+06
(PID.TID 0000.0001) %MON trcstat_ptracer01_min        =   5.5373948898045E+03
(PID.TID 0000.0001) %MON trcstat_ptracer01_mean       =   1.2785934695987E+06
(PID.TID 0000.0001) %MON trcstat_ptracer01_sd         =   1.4176458803583E+05
(PID.TID 0000.0001) %MON trcstat_ptracer01_del2       =   4.8699076697690E+03
(PID.TID 0000.0001) // =======================================================
(PID.TID 0000.0001) // End MONITOR ptracers field statistics
(PID.TID 0000.0001) // =======================================================
S/R EXTERNAL_FIELDS_LOAD: Reading new data:    1    2        15  1.296000000000E+06
(PID.TID 0000.0001)  MDS_READ_FIELD: opening global file: trenberth_taux.bin
(PID.TID 0000.0001)  MDS_READ_FIELD: opening global file: trenberth_taux.bin
(PID.TID 0000.0001)  MDS_READ_FIELD: opening global file: trenberth_tauy.bin
(PID.TID 0000.0001)  MDS_READ_FIELD: opening global file: trenberth_tauy.bin
(PID.TID 0000.0001)  MDS_READ_FIELD: opening global file: ncep_qnet.bin
(PID.TID 0000.0001)  MDS_READ_FIELD: opening global file: ncep_qnet.bin
(PID.TID 0000.0001)  MDS_READ_FIELD: opening global file: ncep_emp.bin
(PID.TID 0000.0001)  MDS_READ_FIELD: opening global file: ncep_emp.bin
(PID.TID 0000.0001)  MDS_READ_FIELD: opening global file: lev_sst.bin
(PID.TID 0000.0001)  MDS_READ_FIELD: opening global file: lev_sst.bin
(PID.TID 0000.0001)  MDS_READ_FIELD: opening global file: lev_sss.bin
(PID.TID 0000.0001)  MDS_READ_FIELD: opening global file: lev_sss.bin
time,SST,SSS,fu,fv,Q,E-P,i0,i1,a,b =   1.2960E+06  9.5843E-01  3.4715E+01 -3.5633E-02 -5.7257E-02  2.6577E+02  1.1637E-05     1     2  0.0000E+00  1.0000E+00
time,fu0,fu1,fu =   1.2960E+06 -3.5633E-02 -1.4435E-02 -3.5633E-02  0.000000000000000E+00  1.000000000000000E+00
 cg2d: Sum(rhs),rhsMax =   1.44743964702811E-01  1.14261801088722E+00
(PID.TID 0000.0001)                    cg2d_init_res =    5.91908056988459E-01
(PID.TID 0000.0001)                       cg2d_iters =   133
(PID.TID 0000.0001)                         cg2d_res =    8.23822203539860E-14
(PID.TID 0000.0001) // =======================================================
(PID.TID 0000.0001) // Begin MONITOR dynamic field statistics
(PID.TID 0000.0001) // =======================================================
(PID.TID 0000.0001) %MON time_tsnumber                =                    16
(PID.TID 0000.0001) %MON time_secondsf                =   1.3824000000000E+06
(PID.TID 0000.0001) %MON dynstat_eta_max              =   8.3737641947530E-01
(PID.TID 0000.0001) %MON dynstat_eta_min              =  -1.5175262256170E+00
(PID.TID 0000.0001) %MON dynstat_eta_mean             =  -1.1348554071075E-03
(PID.TID 0000.0001) %MON dynstat_eta_sd               =   5.7272125822129E-01
(PID.TID 0000.0001) %MON dynstat_eta_del2             =   1.7223976912585E-02
(PID.TID 0000.0001) %MON dynstat_uvel_max             =   1.8821518471306E-01
(PID.TID 0000.0001) %MON dynstat_uvel_min             =  -1.0903571367728E-01
(PID.TID 0000.0001) %MON dynstat_uvel_mean            =   8.4046043469642E-04
(PID.TID 0000.0001) %MON dynstat_uvel_sd              =   1.5677003231640E-02
(PID.TID 0000.0001) %MON dynstat_uvel_del2            =   2.8293506495379E-03
(PID.TID 0000.0001) %MON dynstat_vvel_max             =   1.2277113842356E-01
(PID.TID 0000.0001) %MON dynstat_vvel_min             =  -1.0771701686468E-01
(PID.TID 0000.0001) %MON dynstat_vvel_mean            =   8.7465783635859E-05
(PID.TID 0000.0001) %MON dynstat_vvel_sd              =   8.8231416546428E-03
(PID.TID 0000.0001) %MON dynstat_vvel_del2            =   2.4560602492288E-03
(PID.TID 0000.0001) %MON dynstat_wvel_max             =   1.5413490298164E-04
(PID.TID 0000.0001) %MON dynstat_wvel_min             =  -1.9247954353725E-04
(PID.TID 0000.0001) %MON dynstat_wvel_mean            =   2.1138668129224E-22
(PID.TID 0000.0001) %MON dynstat_wvel_sd              =   1.7267161723654E-05
(PID.TID 0000.0001) %MON dynstat_wvel_del2            =   6.2230453500120E-06
(PID.TID 0000.0001) %MON dynstat_theta_max            =   2.9679661018036E+01
(PID.TID 0000.0001) %MON dynstat_theta_min            =  -1.9129417873240E+00
(PID.TID 0000.0001) %MON dynstat_theta_mean           =   3.6195447381150E+00
(PID.TID 0000.0001) %MON dynstat_theta_sd             =   4.4142175911317E+00
(PID.TID 0000.0001) %MON dynstat_theta_del2           =   1.3754013726727E-01
(PID.TID 0000.0001) %MON dynstat_salt_max             =   3.7439105625469E+01
(PID.TID 0000.0001) %MON dynstat_salt_min             =   2.9758093655055E+01
(PID.TID 0000.0001) %MON dynstat_salt_mean            =   3.4717976487766E+01
(PID.TID 0000.0001) %MON dynstat_salt_sd              =   2.9618334391335E-01
(PID.TID 0000.0001) %MON dynstat_salt_del2            =   2.6076905017164E-02
(PID.TID 0000.0001) %MON extforcing_qnet_max          =   4.4161361694336E+02
(PID.TID 0000.0001) %MON extforcing_qnet_min          =  -1.8132531738281E+02
(PID.TID 0000.0001) %MON extforcing_qnet_mean         =  -1.6512526001044E+01
(PID.TID 0000.0001) %MON extforcing_qnet_sd           =   1.0987288293460E+02
(PID.TID 0000.0001) %MON extforcing_qnet_del2         =   9.6689454498868E+00
(PID.TID 0000.0001) %MON extforcing_qsw_max           =   0.0000000000000E+00
(PID.TID 0000.0001) %MON extforcing_qsw_min           =   0.0000000000000E+00
(PID.TID 0000.0001) %MON extforcing_qsw_mean          =   0.0000000000000E+00
(PID.TID 0000.0001) %MON extforcing_qsw_sd            =   0.0000000000000E+00
(PID.TID 0000.0001) %MON extforcing_qsw_del2          =   0.0000000000000E+00
(PID.TID 0000.0001) %MON extforcing_empmr_max         =   8.2174238968946E-05
(PID.TID 0000.0001) %MON extforcing_empmr_min         =  -7.6155956207913E-05
(PID.TID 0000.0001) %MON extforcing_empmr_mean        =   9.2293706211063E-07
(PID.TID 0000.0001) %MON extforcing_empmr_sd          =   2.8800050217957E-05
(PID.TID 0000.0001) %MON extforcing_empmr_del2        =   3.7517335599309E-06
(PID.TID 0000.0001) %MON advcfl_uvel_max              =   5.1827125752760E-02
(PID.TID 0000.0001) %MON advcfl_vvel_max              =   2.3852463183364E-02
(PID.TID 0000.0001) %MON advcfl_wvel_max              =   5.8586216360919E-02
(PID.TID 0000.0001) %MON advcfl_W_hf_max              =   6.4688947231848E-02
(PID.TID 0000.0001) %MON pe_b_mean                    =   4.1972951784157E-04
(PID.TID 0000.0001) %MON ke_max                       =   1.8431082129017E-02
(PID.TID 0000.0001) %MON ke_mean                      =   1.4692997078483E-04
(PID.TID 0000.0001) %MON ke_vol                       =   1.3226782436723E+18
(PID.TID 0000.0001) %MON vort_r_min                   =  -3.9316815201280E-07
(PID.TID 0000.0001) %MON vort_r_max                   =   3.8748822813686E-07
(PID.TID 0000.0001) %MON vort_a_mean                  =  -2.5274806988504E-05
(PID.TID 0000.0001) %MON vort_a_sd                    =   7.3604437455056E-05
(PID.TID 0000.0001) %MON vort_p_mean                  =  -3.1845655284208E-05
(PID.TID 0000.0001) %MON vort_p_sd                    =   1.3162376535742E-04
(PID.TID 0000.0001) %MON surfExpan_theta_mean         =   4.7205256220964E-07
(PID.TID 0000.0001) %MON surfExpan_salt_mean          =  -1.5487369715835E-08
(PID.TID 0000.0001) // =======================================================
(PID.TID 0000.0001) // End MONITOR dynamic field statistics
(PID.TID 0000.0001) // =======================================================
(PID.TID 0000.0001) // =======================================================
(PID.TID 0000.0001) // Begin MONITOR ptracer field statistics
(PID.TID 0000.0001) // =======================================================
(PID.TID 0000.0001) %MON trcstat_ptracer01_max        =   1.3845756552018E+06
(PID.TID 0000.0001) %MON trcstat_ptracer01_min        =   6.0513676478069E+03
(PID.TID 0000.0001) %MON trcstat_ptracer01_mean       =   1.3637659115575E+06
(PID.TID 0000.0001) %MON trcstat_ptracer01_sd         =   1.5108676450752E+05
(PID.TID 0000.0001) %MON trcstat_ptracer01_del2       =   5.2247983522925E+03
(PID.TID 0000.0001) // =======================================================
(PID.TID 0000.0001) // End MONITOR ptracers field statistics
(PID.TID 0000.0001) // =======================================================
time,SST,SSS,fu,fv,Q,E-P,i0,i1,a,b =   1.3824E+06  9.0875E-01  3.4705E+01 -3.4926E-02 -5.5936E-02  2.6493E+02  1.1528E-05     1     2  3.3333E-02  9.6667E-01
time,fu0,fu1,fu =   1.3824E+06 -3.5633E-02 -1.4435E-02 -3.4926E-02  3.333333333333333E-02  9.666666666666667E-01
 cg2d: Sum(rhs),rhsMax =   1.47455407852394E-01  1.19780936291351E+00
(PID.TID 0000.0001)                    cg2d_init_res =    5.59689498430764E-01
(PID.TID 0000.0001)                       cg2d_iters =   132
(PID.TID 0000.0001)                         cg2d_res =    8.24163351047081E-14
(PID.TID 0000.0001) // =======================================================
(PID.TID 0000.0001) // Begin MONITOR dynamic field statistics
(PID.TID 0000.0001) // =======================================================
(PID.TID 0000.0001) %MON time_tsnumber                =                    17
(PID.TID 0000.0001) %MON time_secondsf                =   1.4688000000000E+06
(PID.TID 0000.0001) %MON dynstat_eta_max              =   8.8051002124362E-01
(PID.TID 0000.0001) %MON dynstat_eta_min              =  -1.5525457872675E+00
(PID.TID 0000.0001) %MON dynstat_eta_mean             =  -1.2119575532810E-03
(PID.TID 0000.0001) %MON dynstat_eta_sd               =   5.7892761532251E-01
(PID.TID 0000.0001) %MON dynstat_eta_del2             =   1.7302526998707E-02
(PID.TID 0000.0001) %MON dynstat_uvel_max             =   1.8789555755454E-01
(PID.TID 0000.0001) %MON dynstat_uvel_min             =  -1.1639032689246E-01
(PID.TID 0000.0001) %MON dynstat_uvel_mean            =   9.2397124609661E-04
(PID.TID 0000.0001) %MON dynstat_uvel_sd              =   1.5572316603337E-02
(PID.TID 0000.0001) %MON dynstat_uvel_del2            =   2.8258749865148E-03
(PID.TID 0000.0001) %MON dynstat_vvel_max             =   1.2566994621417E-01
(PID.TID 0000.0001) %MON dynstat_vvel_min             =  -1.0893136996438E-01
(PID.TID 0000.0001) %MON dynstat_vvel_mean            =   9.2861296424332E-05
(PID.TID 0000.0001) %MON dynstat_vvel_sd              =   8.9403040336947E-03
(PID.TID 0000.0001) %MON dynstat_vvel_del2            =   2.4706278591488E-03
(PID.TID 0000.0001) %MON dynstat_wvel_max             =   1.5000142048806E-04
(PID.TID 0000.0001) %MON dynstat_wvel_min             =  -1.8901012562114E-04
(PID.TID 0000.0001) %MON dynstat_wvel_mean            =  -2.8184890838965E-22
(PID.TID 0000.0001) %MON dynstat_wvel_sd              =   1.7480928374521E-05
(PID.TID 0000.0001) %MON dynstat_wvel_del2            =   6.4348133005951E-06
(PID.TID 0000.0001) %MON dynstat_theta_max            =   2.9683070776702E+01
(PID.TID 0000.0001) %MON dynstat_theta_min            =  -1.9411911640326E+00
(PID.TID 0000.0001) %MON dynstat_theta_mean           =   3.6195953055985E+00
(PID.TID 0000.0001) %MON dynstat_theta_sd             =   4.4142330894845E+00
(PID.TID 0000.0001) %MON dynstat_theta_del2           =   1.3735799245670E-01
(PID.TID 0000.0001) %MON dynstat_salt_max             =   3.7440054087946E+01
(PID.TID 0000.0001) %MON dynstat_salt_min             =   2.9761039251614E+01
(PID.TID 0000.0001) %MON dynstat_salt_mean            =   3.4717977236776E+01
(PID.TID 0000.0001) %MON dynstat_salt_sd              =   2.9618715966647E-01
(PID.TID 0000.0001) %MON dynstat_salt_del2            =   2.6085341758919E-02
(PID.TID 0000.0001) %MON extforcing_qnet_max          =   4.3829453023275E+02
(PID.TID 0000.0001) %MON extforcing_qnet_min          =  -1.8026952260335E+02
(PID.TID 0000.0001) %MON extforcing_qnet_mean         =  -1.6427616833641E+01
(PID.TID 0000.0001) %MON extforcing_qnet_sd           =   1.0879423939526E+02
(PID.TID 0000.0001) %MON extforcing_qnet_del2         =   9.6167859194667E+00
(PID.TID 0000.0001) %MON extforcing_qsw_max           =   0.0000000000000E+00
(PID.TID 0000.0001) %MON extforcing_qsw_min           =   0.0000000000000E+00
(PID.TID 0000.0001) %MON extforcing_qsw_mean          =   0.0000000000000E+00
(PID.TID 0000.0001) %MON extforcing_qsw_sd            =   0.0000000000000E+00
(PID.TID 0000.0001) %MON extforcing_qsw_del2          =   0.0000000000000E+00
(PID.TID 0000.0001) %MON extforcing_empmr_max         =   8.1860149236945E-05
(PID.TID 0000.0001) %MON extforcing_empmr_min         =  -7.6235600469469E-05
(PID.TID 0000.0001) %MON extforcing_empmr_mean        =   9.2361945937059E-07
(PID.TID 0000.0001) %MON extforcing_empmr_sd          =   2.8746828928173E-05
(PID.TID 0000.0001) %MON extforcing_empmr_del2        =   3.7394196535090E-06
(PID.TID 0000.0001) %MON advcfl_uvel_max              =   5.0193214373162E-02
(PID.TID 0000.0001) %MON advcfl_vvel_max              =   2.4415655045792E-02
(PID.TID 0000.0001) %MON advcfl_wvel_max              =   5.7438038414880E-02
(PID.TID 0000.0001) %MON advcfl_W_hf_max              =   6.3421167416430E-02
(PID.TID 0000.0001) %MON pe_b_mean                    =   4.2887589365375E-04
(PID.TID 0000.0001) %MON ke_max                       =   1.8405600276768E-02
(PID.TID 0000.0001) %MON ke_mean                      =   1.4644545571194E-04
(PID.TID 0000.0001) %MON ke_vol                       =   1.3226782436723E+18
(PID.TID 0000.0001) %MON vort_r_min                   =  -3.6983610263306E-07
(PID.TID 0000.0001) %MON vort_r_max                   =   3.9681024844107E-07
(PID.TID 0000.0001) %MON vort_a_mean                  =  -2.5274806955927E-05
(PID.TID 0000.0001) %MON vort_a_sd                    =   7.3604449714069E-05
(PID.TID 0000.0001) %MON vort_p_mean                  =  -3.1845655243161E-05
(PID.TID 0000.0001) %MON vort_p_sd                    =   1.3162387581352E-04
(PID.TID 0000.0001) %MON surfExpan_theta_mean         =   4.3491658371552E-07
(PID.TID 0000.0001) %MON surfExpan_salt_mean          =   3.4064472952137E-09
(PID.TID 0000.0001) // =======================================================
(PID.TID 0000.0001) // End MONITOR dynamic field statistics
(PID.TID 0000.0001) // =======================================================
(PID.TID 0000.0001) // =======================================================
(PID.TID 0000.0001) // Begin MONITOR ptracer field statistics
(PID.TID 0000.0001) // =======================================================
(PID.TID 0000.0001) %MON trcstat_ptracer01_max        =   1.4710496825556E+06
(PID.TID 0000.0001) %MON trcstat_ptracer01_min        =   6.5634684813564E+03
(PID.TID 0000.0001) %MON trcstat_ptracer01_mean       =   1.4489268500619E+06
(PID.TID 0000.0001) %MON trcstat_ptracer01_sd         =   1.6044531344885E+05
(PID.TID 0000.0001) %MON trcstat_ptracer01_del2       =   5.5357233201249E+03
(PID.TID 0000.0001) // =======================================================
(PID.TID 0000.0001) // End MONITOR ptracers field statistics
(PID.TID 0000.0001) // =======================================================
time,SST,SSS,fu,fv,Q,E-P,i0,i1,a,b =   1.4688E+06  8.5907E-01  3.4695E+01 -3.4220E-02 -5.4615E-02  2.6408E+02  1.1419E-05     1     2  6.6667E-02  9.3333E-01
time,fu0,fu1,fu =   1.4688E+06 -3.5633E-02 -1.4435E-02 -3.4220E-02  6.666666666666667E-02  9.333333333333333E-01
 cg2d: Sum(rhs),rhsMax =   1.49583981038574E-01  1.25593780646255E+00
(PID.TID 0000.0001)                    cg2d_init_res =    5.36622366243194E-01
(PID.TID 0000.0001)                       cg2d_iters =   132
(PID.TID 0000.0001)                         cg2d_res =    8.37073792285602E-14
(PID.TID 0000.0001) // =======================================================
(PID.TID 0000.0001) // Begin MONITOR dynamic field statistics
(PID.TID 0000.0001) // =======================================================
(PID.TID 0000.0001) %MON time_tsnumber                =                    18
(PID.TID 0000.0001) %MON time_secondsf                =   1.5552000000000E+06
(PID.TID 0000.0001) %MON dynstat_eta_max              =   9.1766605663319E-01
(PID.TID 0000.0001) %MON dynstat_eta_min              =  -1.5813937172714E+00
(PID.TID 0000.0001) %MON dynstat_eta_mean             =  -1.2891166647912E-03
(PID.TID 0000.0001) %MON dynstat_eta_sd               =   5.8328868929486E-01
(PID.TID 0000.0001) %MON dynstat_eta_del2             =   1.7434617616877E-02
(PID.TID 0000.0001) %MON dynstat_uvel_max             =   1.8427432880223E-01
(PID.TID 0000.0001) %MON dynstat_uvel_min             =  -1.2335031508543E-01
(PID.TID 0000.0001) %MON dynstat_uvel_mean            =   1.0105407141821E-03
(PID.TID 0000.0001) %MON dynstat_uvel_sd              =   1.5301536482142E-02
(PID.TID 0000.0001) %MON dynstat_uvel_del2            =   2.8032623130631E-03
(PID.TID 0000.0001) %MON dynstat_vvel_max             =   1.2785720511884E-01
(PID.TID 0000.0001) %MON dynstat_vvel_min             =  -1.0936818954657E-01
(PID.TID 0000.0001) %MON dynstat_vvel_mean            =   8.7435072067912E-05
(PID.TID 0000.0001) %MON dynstat_vvel_sd              =   9.1491073567861E-03
(PID.TID 0000.0001) %MON dynstat_vvel_del2            =   2.4954785989243E-03
(PID.TID 0000.0001) %MON dynstat_wvel_max             =   1.4302045392529E-04
(PID.TID 0000.0001) %MON dynstat_wvel_min             =  -1.8384238193603E-04
(PID.TID 0000.0001) %MON dynstat_wvel_mean            =   1.0569334064612E-22
(PID.TID 0000.0001) %MON dynstat_wvel_sd              =   1.7757079471182E-05
(PID.TID 0000.0001) %MON dynstat_wvel_del2            =   6.5699038630999E-06
(PID.TID 0000.0001) %MON dynstat_theta_max            =   2.9686838569425E+01
(PID.TID 0000.0001) %MON dynstat_theta_min            =  -1.9895622952250E+00
(PID.TID 0000.0001) %MON dynstat_theta_mean           =   3.6196474184586E+00
(PID.TID 0000.0001) %MON dynstat_theta_sd             =   4.4142583817194E+00
(PID.TID 0000.0001) %MON dynstat_theta_del2           =   1.3723372880971E-01
(PID.TID 0000.0001) %MON dynstat_salt_max             =   3.7441057708582E+01
(PID.TID 0000.0001) %MON dynstat_salt_min             =   2.9764387485600E+01
(PID.TID 0000.0001) %MON dynstat_salt_mean            =   3.4717977570895E+01
(PID.TID 0000.0001) %MON dynstat_salt_sd              =   2.9619041200894E-01
(PID.TID 0000.0001) %MON dynstat_salt_del2            =   2.6088798459289E-02
(PID.TID 0000.0001) %MON extforcing_qnet_max          =   4.3497544352214E+02
(PID.TID 0000.0001) %MON extforcing_qnet_min          =  -1.7954050801595E+02
(PID.TID 0000.0001) %MON extforcing_qnet_mean         =  -1.6342707666237E+01
(PID.TID 0000.0001) %MON extforcing_qnet_sd           =   1.0771909522073E+02
(PID.TID 0000.0001) %MON extforcing_qnet_del2         =   9.5655196170201E+00
(PID.TID 0000.0001) %MON extforcing_qsw_max           =   0.0000000000000E+00
(PID.TID 0000.0001) %MON extforcing_qsw_min           =   0.0000000000000E+00
(PID.TID 0000.0001) %MON extforcing_qsw_mean          =   0.0000000000000E+00
(PID.TID 0000.0001) %MON extforcing_qsw_sd            =   0.0000000000000E+00
(PID.TID 0000.0001) %MON extforcing_qsw_del2          =   0.0000000000000E+00
(PID.TID 0000.0001) %MON extforcing_empmr_max         =   8.1546059504944E-05
(PID.TID 0000.0001) %MON extforcing_empmr_min         =  -7.6315244731025E-05
(PID.TID 0000.0001) %MON extforcing_empmr_mean        =   9.2430185663054E-07
(PID.TID 0000.0001) %MON extforcing_empmr_sd          =   2.8695327910656E-05
(PID.TID 0000.0001) %MON extforcing_empmr_del2        =   3.7278942727233E-06
(PID.TID 0000.0001) %MON advcfl_uvel_max              =   4.8175732984962E-02
(PID.TID 0000.0001) %MON advcfl_vvel_max              =   2.4840604371555E-02
(PID.TID 0000.0001) %MON advcfl_wvel_max              =   5.5761729472876E-02
(PID.TID 0000.0001) %MON advcfl_W_hf_max              =   6.1570242959634E-02
(PID.TID 0000.0001) %MON pe_b_mean                    =   4.3536191169581E-04
(PID.TID 0000.0001) %MON ke_max                       =   1.8084971534592E-02
(PID.TID 0000.0001) %MON ke_mean                      =   1.4441873323931E-04
(PID.TID 0000.0001) %MON ke_vol                       =   1.3226782436723E+18
(PID.TID 0000.0001) %MON vort_r_min                   =  -3.4166328549005E-07
(PID.TID 0000.0001) %MON vort_r_max                   =   4.0128356775277E-07
(PID.TID 0000.0001) %MON vort_a_mean                  =  -2.5274806951286E-05
(PID.TID 0000.0001) %MON vort_a_sd                    =   7.3604464373635E-05
(PID.TID 0000.0001) %MON vort_p_mean                  =  -3.1845655237314E-05
(PID.TID 0000.0001) %MON vort_p_sd                    =   1.3162402886206E-04
(PID.TID 0000.0001) %MON surfExpan_theta_mean         =   3.7092715055514E-07
(PID.TID 0000.0001) %MON surfExpan_salt_mean          =   2.1159132004106E-08
(PID.TID 0000.0001) // =======================================================
(PID.TID 0000.0001) // End MONITOR dynamic field statistics
(PID.TID 0000.0001) // =======================================================
(PID.TID 0000.0001) // =======================================================
(PID.TID 0000.0001) // Begin MONITOR ptracer field statistics
(PID.TID 0000.0001) // =======================================================
(PID.TID 0000.0001) %MON trcstat_ptracer01_max        =   1.5575287023968E+06
(PID.TID 0000.0001) %MON trcstat_ptracer01_min        =   7.0709893535790E+03
(PID.TID 0000.0001) %MON trcstat_ptracer01_mean       =   1.5340763833664E+06
(PID.TID 0000.0001) %MON trcstat_ptracer01_sd         =   1.6985419509087E+05
(PID.TID 0000.0001) %MON trcstat_ptracer01_del2       =   5.9077890734638E+03
(PID.TID 0000.0001) // =======================================================
(PID.TID 0000.0001) // End MONITOR ptracers field statistics
(PID.TID 0000.0001) // =======================================================
time,SST,SSS,fu,fv,Q,E-P,i0,i1,a,b =   1.5552E+06  8.0940E-01  3.4685E+01 -3.3513E-02 -5.3295E-02  2.6324E+02  1.1311E-05     1     2  1.0000E-01  9.0000E-01
time,fu0,fu1,fu =   1.5552E+06 -3.5633E-02 -1.4435E-02 -3.3513E-02  1.000000000000000E-01  9.000000000000000E-01
 cg2d: Sum(rhs),rhsMax =   1.51605696472569E-01  1.31341494639504E+00
(PID.TID 0000.0001)                    cg2d_init_res =    5.17526983212287E-01
(PID.TID 0000.0001)                       cg2d_iters =   131
(PID.TID 0000.0001)                         cg2d_res =    9.44193323276747E-14
(PID.TID 0000.0001) // =======================================================
(PID.TID 0000.0001) // Begin MONITOR dynamic field statistics
(PID.TID 0000.0001) // =======================================================
(PID.TID 0000.0001) %MON time_tsnumber                =                    19
(PID.TID 0000.0001) %MON time_secondsf                =   1.6416000000000E+06
(PID.TID 0000.0001) %MON dynstat_eta_max              =   9.4437140108624E-01
(PID.TID 0000.0001) %MON dynstat_eta_min              =  -1.6029970718536E+00
(PID.TID 0000.0001) %MON dynstat_eta_mean             =  -1.3663327416376E-03
(PID.TID 0000.0001) %MON dynstat_eta_sd               =   5.8563933107511E-01
(PID.TID 0000.0001) %MON dynstat_eta_del2             =   1.7634829646672E-02
(PID.TID 0000.0001) %MON dynstat_uvel_max             =   1.8084802265196E-01
(PID.TID 0000.0001) %MON dynstat_uvel_min             =  -1.2987806424639E-01
(PID.TID 0000.0001) %MON dynstat_uvel_mean            =   1.0937119533659E-03
(PID.TID 0000.0001) %MON dynstat_uvel_sd              =   1.4893192570597E-02
(PID.TID 0000.0001) %MON dynstat_uvel_del2            =   2.7603984427054E-03
(PID.TID 0000.0001) %MON dynstat_vvel_max             =   1.3546148988222E-01
(PID.TID 0000.0001) %MON dynstat_vvel_min             =  -1.0902916426771E-01
(PID.TID 0000.0001) %MON dynstat_vvel_mean            =   7.5515871126626E-05
(PID.TID 0000.0001) %MON dynstat_vvel_sd              =   9.3950535274805E-03
(PID.TID 0000.0001) %MON dynstat_vvel_del2            =   2.5208812170120E-03
(PID.TID 0000.0001) %MON dynstat_wvel_max             =   1.3372279800066E-04
(PID.TID 0000.0001) %MON dynstat_wvel_min             =  -1.7710457544012E-04
(PID.TID 0000.0001) %MON dynstat_wvel_mean            =  -2.9359261290589E-22
(PID.TID 0000.0001) %MON dynstat_wvel_sd              =   1.7946577465220E-05
(PID.TID 0000.0001) %MON dynstat_wvel_del2            =   6.6017010912578E-06
(PID.TID 0000.0001) %MON dynstat_theta_max            =   2.9691174261644E+01
(PID.TID 0000.0001) %MON dynstat_theta_min            =  -1.9897057595762E+00
(PID.TID 0000.0001) %MON dynstat_theta_mean           =   3.6197021086982E+00
(PID.TID 0000.0001) %MON dynstat_theta_sd             =   4.4142957811510E+00
(PID.TID 0000.0001) %MON dynstat_theta_del2           =   1.3709690265948E-01
(PID.TID 0000.0001) %MON dynstat_salt_max             =   3.7442135842854E+01
(PID.TID 0000.0001) %MON dynstat_salt_min             =   2.9768126250648E+01
(PID.TID 0000.0001) %MON dynstat_salt_mean            =   3.4717977557787E+01
(PID.TID 0000.0001) %MON dynstat_salt_sd              =   2.9619297988509E-01
(PID.TID 0000.0001) %MON dynstat_salt_del2            =   2.6087746859398E-02
(PID.TID 0000.0001) %MON extforcing_qnet_max          =   4.3165635681152E+02
(PID.TID 0000.0001) %MON extforcing_qnet_min          =  -1.7930098876953E+02
(PID.TID 0000.0001) %MON extforcing_qnet_mean         =  -1.6257798498834E+01
(PID.TID 0000.0001) %MON extforcing_qnet_sd           =   1.0664755624532E+02
(PID.TID 0000.0001) %MON extforcing_qnet_del2         =   9.5151582064678E+00
(PID.TID 0000.0001) %MON extforcing_qsw_max           =   0.0000000000000E+00
(PID.TID 0000.0001) %MON extforcing_qsw_min           =   0.0000000000000E+00
(PID.TID 0000.0001) %MON extforcing_qsw_mean          =   0.0000000000000E+00
(PID.TID 0000.0001) %MON extforcing_qsw_sd            =   0.0000000000000E+00
(PID.TID 0000.0001) %MON extforcing_qsw_del2          =   0.0000000000000E+00
(PID.TID 0000.0001) %MON extforcing_empmr_max         =   8.1231969772944E-05
(PID.TID 0000.0001) %MON extforcing_empmr_min         =  -7.6394888992581E-05
(PID.TID 0000.0001) %MON extforcing_empmr_mean        =   9.2498425389050E-07
(PID.TID 0000.0001) %MON extforcing_empmr_sd          =   2.8645556443893E-05
(PID.TID 0000.0001) %MON extforcing_empmr_del2        =   3.7173517306406E-06
(PID.TID 0000.0001) %MON advcfl_uvel_max              =   4.7279977123073E-02
(PID.TID 0000.0001) %MON advcfl_vvel_max              =   2.6317994943014E-02
(PID.TID 0000.0001) %MON advcfl_wvel_max              =   5.3598457538050E-02
(PID.TID 0000.0001) %MON advcfl_W_hf_max              =   5.9181630198263E-02
(PID.TID 0000.0001) %MON pe_b_mean                    =   4.3887822713459E-04
(PID.TID 0000.0001) %MON ke_max                       =   1.7477499277139E-02
(PID.TID 0000.0001) %MON ke_mean                      =   1.4094331484192E-04
(PID.TID 0000.0001) %MON ke_vol                       =   1.3226782436723E+18
(PID.TID 0000.0001) %MON vort_r_min                   =  -3.1028826959717E-07
(PID.TID 0000.0001) %MON vort_r_max                   =   4.0117049060030E-07
(PID.TID 0000.0001) %MON vort_a_mean                  =  -2.5274806970165E-05
(PID.TID 0000.0001) %MON vort_a_sd                    =   7.3604479972318E-05
(PID.TID 0000.0001) %MON vort_p_mean                  =  -3.1845655261101E-05
(PID.TID 0000.0001) %MON vort_p_sd                    =   1.3162421238619E-04
(PID.TID 0000.0001) %MON surfExpan_theta_mean         =   2.8691185065551E-07
(PID.TID 0000.0001) %MON surfExpan_salt_mean          =   3.6305049393754E-08
(PID.TID 0000.0001) // =======================================================
(PID.TID 0000.0001) // End MONITOR dynamic field statistics
(PID.TID 0000.0001) // =======================================================
(PID.TID 0000.0001) // =======================================================
(PID.TID 0000.0001) // Begin MONITOR ptracer field statistics
(PID.TID 0000.0001) // =======================================================
(PID.TID 0000.0001) %MON trcstat_ptracer01_max        =   1.6440178062303E+06
(PID.TID 0000.0001) %MON trcstat_ptracer01_min        =   7.5713832743284E+03
(PID.TID 0000.0001) %MON trcstat_ptracer01_mean       =   1.6192151594120E+06
(PID.TID 0000.0001) %MON trcstat_ptracer01_sd         =   1.7929370228701E+05
(PID.TID 0000.0001) %MON trcstat_ptracer01_del2       =   6.2884769316290E+03
(PID.TID 0000.0001) // =======================================================
(PID.TID 0000.0001) // End MONITOR ptracers field statistics
(PID.TID 0000.0001) // =======================================================
time,SST,SSS,fu,fv,Q,E-P,i0,i1,a,b =   1.6416E+06  7.5972E-01  3.4675E+01 -3.2807E-02 -5.1974E-02  2.6240E+02  1.1202E-05     1     2  1.3333E-01  8.6667E-01
time,fu0,fu1,fu =   1.6416E+06 -3.5633E-02 -1.4435E-02 -3.2807E-02  1.333333333333333E-01  8.666666666666667E-01
 cg2d: Sum(rhs),rhsMax =   1.53951273543879E-01  1.36655251580305E+00
(PID.TID 0000.0001)                    cg2d_init_res =    5.00416342450480E-01
(PID.TID 0000.0001)                       cg2d_iters =   131
(PID.TID 0000.0001)                         cg2d_res =    8.54408298457624E-14
(PID.TID 0000.0001) // =======================================================
(PID.TID 0000.0001) // Begin MONITOR dynamic field statistics
(PID.TID 0000.0001) // =======================================================
(PID.TID 0000.0001) %MON time_tsnumber                =                    20
(PID.TID 0000.0001) %MON time_secondsf                =   1.7280000000000E+06
(PID.TID 0000.0001) %MON dynstat_eta_max              =   9.5883646762630E-01
(PID.TID 0000.0001) %MON dynstat_eta_min              =  -1.6211532170000E+00
(PID.TID 0000.0001) %MON dynstat_eta_mean             =  -1.4436057838206E-03
(PID.TID 0000.0001) %MON dynstat_eta_sd               =   5.8600563967747E-01
(PID.TID 0000.0001) %MON dynstat_eta_del2             =   1.7894346231142E-02
(PID.TID 0000.0001) %MON dynstat_uvel_max             =   1.7537740103190E-01
(PID.TID 0000.0001) %MON dynstat_uvel_min             =  -1.3594564006041E-01
(PID.TID 0000.0001) %MON dynstat_uvel_mean            =   1.1659902560391E-03
(PID.TID 0000.0001) %MON dynstat_uvel_sd              =   1.4381182201878E-02
(PID.TID 0000.0001) %MON dynstat_uvel_del2            =   2.6983470820805E-03
(PID.TID 0000.0001) %MON dynstat_vvel_max             =   1.4513536809325E-01
(PID.TID 0000.0001) %MON dynstat_vvel_min             =  -1.1322652043351E-01
(PID.TID 0000.0001) %MON dynstat_vvel_mean            =   6.0892966418461E-05
(PID.TID 0000.0001) %MON dynstat_vvel_sd              =   9.6245027472306E-03
(PID.TID 0000.0001) %MON dynstat_vvel_del2            =   2.5341753597353E-03
(PID.TID 0000.0001) %MON dynstat_wvel_max             =   1.2272447248657E-04
(PID.TID 0000.0001) %MON dynstat_wvel_min             =  -1.6894619242525E-04
(PID.TID 0000.0001) %MON dynstat_wvel_mean            =   2.2313038580848E-22
(PID.TID 0000.0001) %MON dynstat_wvel_sd              =   1.7949543846457E-05
(PID.TID 0000.0001) %MON dynstat_wvel_del2            =   6.5336211764652E-06
(PID.TID 0000.0001) %MON dynstat_theta_max            =   2.9696190744235E+01
(PID.TID 0000.0001) %MON dynstat_theta_min            =  -1.9889699308368E+00
(PID.TID 0000.0001) %MON dynstat_theta_mean           =   3.6197594892489E+00
(PID.TID 0000.0001) %MON dynstat_theta_sd             =   4.4143469795910E+00
(PID.TID 0000.0001) %MON dynstat_theta_del2           =   1.3695661488711E-01
(PID.TID 0000.0001) %MON dynstat_salt_max             =   3.7443267362575E+01
(PID.TID 0000.0001) %MON dynstat_salt_min             =   2.9772187732366E+01
(PID.TID 0000.0001) %MON dynstat_salt_mean            =   3.4717977281685E+01
(PID.TID 0000.0001) %MON dynstat_salt_sd              =   2.9619490416085E-01
(PID.TID 0000.0001) %MON dynstat_salt_del2            =   2.6077621739572E-02
(PID.TID 0000.0001) %MON extforcing_qnet_max          =   4.2833727010091E+02
(PID.TID 0000.0001) %MON extforcing_qnet_min          =  -1.7906146952311E+02
(PID.TID 0000.0001) %MON extforcing_qnet_mean         =  -1.6172889331431E+01
(PID.TID 0000.0001) %MON extforcing_qnet_sd           =   1.0557973223764E+02
(PID.TID 0000.0001) %MON extforcing_qnet_del2         =   9.4654256987228E+00
(PID.TID 0000.0001) %MON extforcing_qsw_max           =   0.0000000000000E+00
(PID.TID 0000.0001) %MON extforcing_qsw_min           =   0.0000000000000E+00
(PID.TID 0000.0001) %MON extforcing_qsw_mean          =   0.0000000000000E+00
(PID.TID 0000.0001) %MON extforcing_qsw_sd            =   0.0000000000000E+00
(PID.TID 0000.0001) %MON extforcing_qsw_del2          =   0.0000000000000E+00
(PID.TID 0000.0001) %MON extforcing_empmr_max         =   8.0917880040943E-05
(PID.TID 0000.0001) %MON extforcing_empmr_min         =  -7.6474533254138E-05
(PID.TID 0000.0001) %MON extforcing_empmr_mean        =   9.2566665115046E-07
(PID.TID 0000.0001) %MON extforcing_empmr_sd          =   2.8597523558275E-05
(PID.TID 0000.0001) %MON extforcing_empmr_del2        =   3.7075491096341E-06
(PID.TID 0000.0001) %MON advcfl_uvel_max              =   4.5849765936616E-02
(PID.TID 0000.0001) %MON advcfl_vvel_max              =   2.8197474329063E-02
(PID.TID 0000.0001) %MON advcfl_wvel_max              =   5.0995888597025E-02
(PID.TID 0000.0001) %MON advcfl_W_hf_max              =   5.6307960325882E-02
(PID.TID 0000.0001) %MON pe_b_mean                    =   4.3942769716927E-04
(PID.TID 0000.0001) %MON ke_max                       =   1.6600920208411E-02
(PID.TID 0000.0001) %MON ke_mean                      =   1.3616619131677E-04
(PID.TID 0000.0001) %MON ke_vol                       =   1.3226782436723E+18
(PID.TID 0000.0001) %MON vort_r_min                   =  -2.8012789363852E-07
(PID.TID 0000.0001) %MON vort_r_max                   =   3.9684289741521E-07
(PID.TID 0000.0001) %MON vort_a_mean                  =  -2.5274807003420E-05
(PID.TID 0000.0001) %MON vort_a_sd                    =   7.3604494770890E-05
(PID.TID 0000.0001) %MON vort_p_mean                  =  -3.1845655303001E-05
(PID.TID 0000.0001) %MON vort_p_sd                    =   1.3162441261895E-04
(PID.TID 0000.0001) %MON surfExpan_theta_mean         =   1.9294179274383E-07
(PID.TID 0000.0001) %MON surfExpan_salt_mean          =   4.7960308997848E-08
(PID.TID 0000.0001) // =======================================================
(PID.TID 0000.0001) // End MONITOR dynamic field statistics
(PID.TID 0000.0001) // =======================================================
(PID.TID 0000.0001) // Time-average data written, t-step        20
(PID.TID 0000.0001) 
(PID.TID 0000.0001) // PTRACER time-average data written, t-step        20
(PID.TID 0000.0001) 
(PID.TID 0000.0001) // =======================================================
(PID.TID 0000.0001) // Begin MONITOR ptracer field statistics
(PID.TID 0000.0001) // =======================================================
(PID.TID 0000.0001) %MON trcstat_ptracer01_max        =   1.7305370412869E+06
(PID.TID 0000.0001) %MON trcstat_ptracer01_min        =   8.0622399012628E+03
(PID.TID 0000.0001) %MON trcstat_ptracer01_mean       =   1.7043435216694E+06
(PID.TID 0000.0001) %MON trcstat_ptracer01_sd         =   1.8875676791899E+05
(PID.TID 0000.0001) %MON trcstat_ptracer01_del2       =   6.6904337341308E+03
(PID.TID 0000.0001) // =======================================================
(PID.TID 0000.0001) // End MONITOR ptracers field statistics
(PID.TID 0000.0001) // =======================================================
(PID.TID 0000.0001) %CHECKPOINT        20 0000000020
(PID.TID 0000.0001)   Seconds in section "ALL                    [THE_MODEL_MAIN]":
(PID.TID 0000.0001)           User time:  41.6036746
(PID.TID 0000.0001)         System time:  0.310952995
(PID.TID 0000.0001)     Wall clock time:  42.91028
(PID.TID 0000.0001)          No. starts: 1
(PID.TID 0000.0001)           No. stops: 1
(PID.TID 0000.0001)   Seconds in section "INITIALISE_FIXED       [THE_MODEL_MAIN]":
(PID.TID 0000.0001)           User time:  0.231965
(PID.TID 0000.0001)         System time:  0.0279959998
(PID.TID 0000.0001)     Wall clock time:  0.313156128
(PID.TID 0000.0001)          No. starts: 1
(PID.TID 0000.0001)           No. stops: 1
(PID.TID 0000.0001)   Seconds in section "THE_MAIN_LOOP          [THE_MODEL_MAIN]":
(PID.TID 0000.0001)           User time:  41.3717096
(PID.TID 0000.0001)         System time:  0.282956995
(PID.TID 0000.0001)     Wall clock time:  42.596956
(PID.TID 0000.0001)          No. starts: 1
(PID.TID 0000.0001)           No. stops: 1
(PID.TID 0000.0001)   Seconds in section "INITIALISE_VARIA    [THE_MAIN_LOOP]":
(PID.TID 0000.0001)           User time:  0.639901996
(PID.TID 0000.0001)         System time:  0.066990003
(PID.TID 0000.0001)     Wall clock time:  1.52493286
(PID.TID 0000.0001)          No. starts: 1
(PID.TID 0000.0001)           No. stops: 1
(PID.TID 0000.0001)   Seconds in section "MAIN LOOP           [THE_MAIN_LOOP]":
(PID.TID 0000.0001)           User time:  40.7318076
(PID.TID 0000.0001)         System time:  0.215966992
(PID.TID 0000.0001)     Wall clock time:  41.071898
(PID.TID 0000.0001)          No. starts: 1
(PID.TID 0000.0001)           No. stops: 1
(PID.TID 0000.0001)   Seconds in section "FORWARD_STEP        [THE_MAIN_LOOP]":
(PID.TID 0000.0001)           User time:  40.7298073
(PID.TID 0000.0001)         System time:  0.215966992
(PID.TID 0000.0001)     Wall clock time:  41.0710509
(PID.TID 0000.0001)          No. starts: 20
(PID.TID 0000.0001)           No. stops: 20
(PID.TID 0000.0001)   Seconds in section "LOAD_FIELDS_DRIVER  [FORWARD_STEP]":
(PID.TID 0000.0001)           User time:  0.0619866848
(PID.TID 0000.0001)         System time:  0.00299999863
(PID.TID 0000.0001)     Wall clock time:  0.113684177
(PID.TID 0000.0001)          No. starts: 20
(PID.TID 0000.0001)           No. stops: 20
(PID.TID 0000.0001)   Seconds in section "EXTERNAL_FLDS_LOAD [LOAD_FLDS_DRIVER]":
(PID.TID 0000.0001)           User time:  0.0609872341
(PID.TID 0000.0001)         System time:  0.00299999863
(PID.TID 0000.0001)     Wall clock time:  0.112060785
(PID.TID 0000.0001)          No. starts: 20
(PID.TID 0000.0001)           No. stops: 20
(PID.TID 0000.0001)   Seconds in section "DO_ATMOSPHERIC_PHYS [FORWARD_STEP]":
(PID.TID 0000.0001)           User time:  0.00199890137
(PID.TID 0000.0001)         System time:  0.
(PID.TID 0000.0001)     Wall clock time:  0.000829935074
(PID.TID 0000.0001)          No. starts: 20
(PID.TID 0000.0001)           No. stops: 20
(PID.TID 0000.0001)   Seconds in section "DO_OCEANIC_PHYS     [FORWARD_STEP]":
(PID.TID 0000.0001)           User time:  3.89340794
(PID.TID 0000.0001)         System time:  0.00799900293
(PID.TID 0000.0001)     Wall clock time:  3.9064467
(PID.TID 0000.0001)          No. starts: 20
(PID.TID 0000.0001)           No. stops: 20
(PID.TID 0000.0001)   Seconds in section "THERMODYNAMICS      [FORWARD_STEP]":
(PID.TID 0000.0001)           User time:  13.4069625
(PID.TID 0000.0001)         System time:  0.0299950168
(PID.TID 0000.0001)     Wall clock time:  13.4484136
(PID.TID 0000.0001)          No. starts: 20
(PID.TID 0000.0001)           No. stops: 20
(PID.TID 0000.0001)   Seconds in section "DYNAMICS            [FORWARD_STEP]":
(PID.TID 0000.0001)           User time:  9.29959142
(PID.TID 0000.0001)         System time:  0.0139990002
(PID.TID 0000.0001)     Wall clock time:  9.31840849
(PID.TID 0000.0001)          No. starts: 20
(PID.TID 0000.0001)           No. stops: 20
(PID.TID 0000.0001)   Seconds in section "SOLVE_FOR_PRESSURE  [FORWARD_STEP]":
(PID.TID 0000.0001)           User time:  5.39117241
(PID.TID 0000.0001)         System time:  0.000999987125
(PID.TID 0000.0001)     Wall clock time:  5.40147662
(PID.TID 0000.0001)          No. starts: 20
(PID.TID 0000.0001)           No. stops: 20
(PID.TID 0000.0001)   Seconds in section "MOM_CORRECTION_STEP [FORWARD_STEP]":
(PID.TID 0000.0001)           User time:  0.785881996
(PID.TID 0000.0001)         System time:  0.00199900568
(PID.TID 0000.0001)     Wall clock time:  0.785217524
(PID.TID 0000.0001)          No. starts: 20
(PID.TID 0000.0001)           No. stops: 20
(PID.TID 0000.0001)   Seconds in section "UPDATE_ETAH         [FORWARD_STEP]":
(PID.TID 0000.0001)           User time:  0.00599908829
(PID.TID 0000.0001)         System time:  0.
(PID.TID 0000.0001)     Wall clock time:  0.00687503815
(PID.TID 0000.0001)          No. starts: 20
(PID.TID 0000.0001)           No. stops: 20
(PID.TID 0000.0001)   Seconds in section "TRC_CORRECTION_STEP [FORWARD_STEP]":
(PID.TID 0000.0001)           User time:  0.229966402
(PID.TID 0000.0001)         System time:  0.00100000203
(PID.TID 0000.0001)     Wall clock time:  0.228665352
(PID.TID 0000.0001)          No. starts: 20
(PID.TID 0000.0001)           No. stops: 20
(PID.TID 0000.0001)   Seconds in section "BLOCKING_EXCHANGES  [FORWARD_STEP]":
(PID.TID 0000.0001)           User time:  0.155977011
(PID.TID 0000.0001)         System time:  0.
(PID.TID 0000.0001)     Wall clock time:  0.157734156
(PID.TID 0000.0001)          No. starts: 20
(PID.TID 0000.0001)           No. stops: 20
(PID.TID 0000.0001)   Seconds in section "DO_STATEVARS_TAVE   [FORWARD_STEP]":
(PID.TID 0000.0001)           User time:  2.18767309
(PID.TID 0000.0001)         System time:  0.000999987125
(PID.TID 0000.0001)     Wall clock time:  2.19661379
(PID.TID 0000.0001)          No. starts: 20
(PID.TID 0000.0001)           No. stops: 20
(PID.TID 0000.0001)   Seconds in section "MONITOR             [FORWARD_STEP]":
(PID.TID 0000.0001)           User time:  3.30149794
(PID.TID 0000.0001)         System time:  0.00899801403
(PID.TID 0000.0001)     Wall clock time:  3.31591725
(PID.TID 0000.0001)          No. starts: 20
(PID.TID 0000.0001)           No. stops: 20
(PID.TID 0000.0001)   Seconds in section "DO_THE_MODEL_IO     [FORWARD_STEP]":
(PID.TID 0000.0001)           User time:  1.76172686
(PID.TID 0000.0001)         System time:  0.106982991
(PID.TID 0000.0001)     Wall clock time:  1.89917254
(PID.TID 0000.0001)          No. starts: 20
(PID.TID 0000.0001)           No. stops: 20
(PID.TID 0000.0001)   Seconds in section "DO_WRITE_PICKUP     [FORWARD_STEP]":
(PID.TID 0000.0001)           User time:  0.236965179
(PID.TID 0000.0001)         System time:  0.0379939973
(PID.TID 0000.0001)     Wall clock time:  0.279296398
(PID.TID 0000.0001)          No. starts: 20
(PID.TID 0000.0001)           No. stops: 20
(PID.TID 0000.0001) // ======================================================
(PID.TID 0000.0001) // Tile <-> Tile communication statistics
(PID.TID 0000.0001) // ======================================================
(PID.TID 0000.0001) // o Tile number: 000001
(PID.TID 0000.0001) //         No. X exchanges =              0
(PID.TID 0000.0001) //            Max. X spins =              0
(PID.TID 0000.0001) //            Min. X spins =     1000000000
(PID.TID 0000.0001) //          Total. X spins =              0
(PID.TID 0000.0001) //            Avg. X spins =       0.00E+00
(PID.TID 0000.0001) //         No. Y exchanges =              0
(PID.TID 0000.0001) //            Max. Y spins =              0
(PID.TID 0000.0001) //            Min. Y spins =     1000000000
(PID.TID 0000.0001) //          Total. Y spins =              0
(PID.TID 0000.0001) //            Avg. Y spins =       0.00E+00
(PID.TID 0000.0001) // o Tile number: 000002
(PID.TID 0000.0001) //         No. X exchanges =              0
(PID.TID 0000.0001) //            Max. X spins =              0
(PID.TID 0000.0001) //            Min. X spins =     1000000000
(PID.TID 0000.0001) //          Total. X spins =              0
(PID.TID 0000.0001) //            Avg. X spins =       0.00E+00
(PID.TID 0000.0001) //         No. Y exchanges =              0
(PID.TID 0000.0001) //            Max. Y spins =              0
(PID.TID 0000.0001) //            Min. Y spins =     1000000000
(PID.TID 0000.0001) //          Total. Y spins =              0
(PID.TID 0000.0001) //            Avg. Y spins =       0.00E+00
(PID.TID 0000.0001) // o Thread number: 000001
(PID.TID 0000.0001) //            No. barriers =          21548
(PID.TID 0000.0001) //      Max. barrier spins =              1
(PID.TID 0000.0001) //      Min. barrier spins =              1
(PID.TID 0000.0001) //     Total barrier spins =          21548
(PID.TID 0000.0001) //      Avg. barrier spins =       1.00E+00
