(PID.TID 0000.0001) 
(PID.TID 0000.0001) // ======================================================
(PID.TID 0000.0001) //                      MITgcm UV
(PID.TID 0000.0001) //                      =========
(PID.TID 0000.0001) // ======================================================
(PID.TID 0000.0001) // execution environment starting up...
(PID.TID 0000.0001) 
(PID.TID 0000.0001) // MITgcmUV version:  checkpoint59f
(PID.TID 0000.0001) // Build user:        jmc
(PID.TID 0000.0001) // Build host:        faulks
(PID.TID 0000.0001) // Build date:        Tue Aug 21 22:36:41 EDT 2007
(PID.TID 0000.0001) 
(PID.TID 0000.0001) // =======================================================
(PID.TID 0000.0001) // Execution Environment parameter file "eedata"
(PID.TID 0000.0001) // =======================================================
(PID.TID 0000.0001) ># Example "eedata" file
(PID.TID 0000.0001) ># Lines beginning "#" are comments
(PID.TID 0000.0001) ># nTx - No. threads per process in X
(PID.TID 0000.0001) ># nTy - No. threads per process in Y
(PID.TID 0000.0001) > &EEPARMS
(PID.TID 0000.0001) > nTx=1,
(PID.TID 0000.0001) > nTy=1,
(PID.TID 0000.0001) > &
(PID.TID 0000.0001) ># Note: Some systems use & as the
(PID.TID 0000.0001) ># namelist terminator. Other systems
(PID.TID 0000.0001) ># use a / character (as shown here).
(PID.TID 0000.0001) 
(PID.TID 0000.0001) // =======================================================
(PID.TID 0000.0001) // Computational Grid Specification ( see files "SIZE.h" )
(PID.TID 0000.0001) //                                  ( and "eedata"       )
(PID.TID 0000.0001) // =======================================================
(PID.TID 0000.0001)      nPx =    1 ; /* No. processes in X */
(PID.TID 0000.0001)      nPy =    1 ; /* No. processes in Y */
(PID.TID 0000.0001)      nSx =    2 ; /* No. tiles in X per process */
(PID.TID 0000.0001)      nSy =    1 ; /* No. tiles in Y per process */
(PID.TID 0000.0001)      sNx =   45 ; /* Tile size in X */
(PID.TID 0000.0001)      sNy =   40 ; /* Tile size in Y */
(PID.TID 0000.0001)      OLx =    2 ; /* Tile overlap distance in X */
(PID.TID 0000.0001)      OLy =    2 ; /* Tile overlap distance in Y */
(PID.TID 0000.0001)      nTx =    1 ; /* No. threads in X per process */
(PID.TID 0000.0001)      nTy =    1 ; /* No. threads in Y per process */
(PID.TID 0000.0001)       Nr =   15 ; /* No. levels in the vertical   */
(PID.TID 0000.0001)       nX =   90 ; /* Total domain size in X ( = nPx*nSx*sNx ) */
(PID.TID 0000.0001)       nY =   40 ; /* Total domain size in Y ( = nPy*nSy*sNy ) */
(PID.TID 0000.0001)   nTiles =    2 ; /* Total no. tiles per process ( = nSx*nSy ) */
(PID.TID 0000.0001)   nProcs =    1 ; /* Total no. processes ( = nPx*nPy ) */
(PID.TID 0000.0001) nThreads =    1 ; /* Total no. threads per process ( = nTx*nTy ) */
(PID.TID 0000.0001) usingMPI =    F ; /* Flag used to control whether MPI is in use */
(PID.TID 0000.0001)                   /*  note: To execute a program with MPI calls */
(PID.TID 0000.0001)                   /*  it must be launched appropriately e.g     */
(PID.TID 0000.0001)                   /*  "mpirun -np 64 ......"                    */
(PID.TID 0000.0001) useCoupler=   F ; /* Flag used to control communications with */
(PID.TID 0000.0001)                   /*  other model components, through a coupler */
(PID.TID 0000.0001) 
(PID.TID 0000.0001) // ======================================================
(PID.TID 0000.0001) // Mapping of tiles to threads
(PID.TID 0000.0001) // ======================================================
(PID.TID 0000.0001) // -o- Thread   1, tiles (   1:   2,   1:   1)
(PID.TID 0000.0001) 
(PID.TID 0000.0001) // ======================================================
(PID.TID 0000.0001) // Tile <-> Tile connectvity table
(PID.TID 0000.0001) // ======================================================
(PID.TID 0000.0001) // Tile number: 000001 (process no. = 000001)
(PID.TID 0000.0001) //        WEST: Tile = 000002, Process = 000001, Comm = put
(PID.TID 0000.0001) //                bi = 000002, bj = 000001
(PID.TID 0000.0001) //        EAST: Tile = 000002, Process = 000001, Comm = put
(PID.TID 0000.0001) //                bi = 000002, bj = 000001
(PID.TID 0000.0001) //       SOUTH: Tile = 000001, Process = 000001, Comm = put
(PID.TID 0000.0001) //                bi = 000001, bj = 000001
(PID.TID 0000.0001) //       NORTH: Tile = 000001, Process = 000001, Comm = put
(PID.TID 0000.0001) //                bi = 000001, bj = 000001
(PID.TID 0000.0001) // Tile number: 000002 (process no. = 000001)
(PID.TID 0000.0001) //        WEST: Tile = 000001, Process = 000001, Comm = put
(PID.TID 0000.0001) //                bi = 000001, bj = 000001
(PID.TID 0000.0001) //        EAST: Tile = 000001, Process = 000001, Comm = put
(PID.TID 0000.0001) //                bi = 000001, bj = 000001
(PID.TID 0000.0001) //       SOUTH: Tile = 000002, Process = 000001, Comm = put
(PID.TID 0000.0001) //                bi = 000002, bj = 000001
(PID.TID 0000.0001) //       NORTH: Tile = 000002, Process = 000001, Comm = put
(PID.TID 0000.0001) //                bi = 000002, bj = 000001
(PID.TID 0000.0001) 
(PID.TID 0000.0001) // =======================================================
(PID.TID 0000.0001) // Model parameter file "data"
(PID.TID 0000.0001) // =======================================================
(PID.TID 0000.0001) ># ====================
(PID.TID 0000.0001) ># | Model parameters |
(PID.TID 0000.0001) ># ====================
(PID.TID 0000.0001) >#
(PID.TID 0000.0001) ># Continuous equation parameters
(PID.TID 0000.0001) > &PARM01
(PID.TID 0000.0001) > tRef = 15*20.,
(PID.TID 0000.0001) > sRef = 15*35.,
(PID.TID 0000.0001) > viscAr=1.E-3,
(PID.TID 0000.0001) > viscAh=5.E5,
(PID.TID 0000.0001) > diffKhT=0.,
(PID.TID 0000.0001) > diffKrT=3.E-5,
(PID.TID 0000.0001) > diffKhS=0.,
(PID.TID 0000.0001) > diffKrS=3.E-5,
(PID.TID 0000.0001) > rhonil=1035.,
(PID.TID 0000.0001) > rhoConstFresh=1000.,
(PID.TID 0000.0001) > eosType = 'JMD95Z',
(PID.TID 0000.0001) > ivdc_kappa=100.,
(PID.TID 0000.0001) > implicitDiffusion=.TRUE.,
(PID.TID 0000.0001) > allowFreezing=.TRUE.,
(PID.TID 0000.0001) > exactConserv=.TRUE.,
(PID.TID 0000.0001) > useRealFreshWaterFlux=.TRUE.,
(PID.TID 0000.0001) > useCDscheme=.TRUE.,
(PID.TID 0000.0001) ># turn on looped cells
(PID.TID 0000.0001) > hFacMin=.05,
(PID.TID 0000.0001) > hFacMindr=50.,
(PID.TID 0000.0001) ># set precision of data files
(PID.TID 0000.0001) > readBinaryPrec=32,
(PID.TID 0000.0001) > &
(PID.TID 0000.0001) >
(PID.TID 0000.0001) ># Elliptic solver parameters
(PID.TID 0000.0001) > &PARM02
(PID.TID 0000.0001) > cg2dMaxIters=500,
(PID.TID 0000.0001) > cg2dTargetResidual=1.E-13,
(PID.TID 0000.0001) > &
(PID.TID 0000.0001) >
(PID.TID 0000.0001) ># Time stepping parameters
(PID.TID 0000.0001) > &PARM03
(PID.TID 0000.0001) > nIter0=       0,
(PID.TID 0000.0001) > nTimeSteps = 20,
(PID.TID 0000.0001) ># 100 years of integration will yield a reasonable flow field
(PID.TID 0000.0001) ># startTime =          0.,
(PID.TID 0000.0001) ># endTime   = 3110400000.,
(PID.TID 0000.0001) > deltaTmom = 1800.,
(PID.TID 0000.0001) > tauCD =     321428.,
(PID.TID 0000.0001) > deltaTtracer= 86400.,
(PID.TID 0000.0001) > deltaTClock = 86400.,
(PID.TID 0000.0001) > deltaTfreesurf= 86400.,
(PID.TID 0000.0001) > abEps = 0.1,
(PID.TID 0000.0001) > pChkptFreq= 1728000.,
(PID.TID 0000.0001) > dumpFreq=   864000.,
(PID.TID 0000.0001) > taveFreq=   864000.,
(PID.TID 0000.0001) > monitorFreq=1.,
(PID.TID 0000.0001) ># 2 months restoring timescale for temperature
(PID.TID 0000.0001) > tauThetaClimRelax=  5184000.,
(PID.TID 0000.0001) ># 6 months restoring timescale for salinity
(PID.TID 0000.0001) > tauSaltClimRelax = 15552000.,
(PID.TID 0000.0001) > periodicExternalForcing=.TRUE.,
(PID.TID 0000.0001) > externForcingPeriod=2592000.,
(PID.TID 0000.0001) > externForcingCycle=31104000.,
(PID.TID 0000.0001) > &
(PID.TID 0000.0001) >
(PID.TID 0000.0001) ># Gridding parameters
(PID.TID 0000.0001) > &PARM04
(PID.TID 0000.0001) > usingSphericalPolarGrid=.TRUE.,
(PID.TID 0000.0001) > delR= 50.,  70., 100., 140., 190.,
(PID.TID 0000.0001) >      240., 290., 340., 390., 440.,
(PID.TID 0000.0001) >      490., 540., 590., 640., 690.,
(PID.TID 0000.0001) > phiMin=-80.,
(PID.TID 0000.0001) > dySpacing=4.,
(PID.TID 0000.0001) > dxSpacing=4.,
(PID.TID 0000.0001) > &
(PID.TID 0000.0001) >
(PID.TID 0000.0001) ># Input datasets
(PID.TID 0000.0001) > &PARM05
(PID.TID 0000.0001) > bathyFile=      'bathymetry.bin',
(PID.TID 0000.0001) > hydrogThetaFile='lev_t.bin',
(PID.TID 0000.0001) > hydrogSaltFile= 'lev_s.bin',
(PID.TID 0000.0001) > zonalWindFile=  'trenberth_taux.bin',
(PID.TID 0000.0001) > meridWindFile=  'trenberth_tauy.bin',
(PID.TID 0000.0001) > thetaClimFile=  'lev_sst.bin',
(PID.TID 0000.0001) > saltClimFile=   'lev_sss.bin',
(PID.TID 0000.0001) > surfQFile=      'ncep_qnet.bin',
(PID.TID 0000.0001) > the_run_name=   'global_oce_latlon',
(PID.TID 0000.0001) ># fresh water flux is turned on, comment next line to it turn off
(PID.TID 0000.0001) ># (maybe better with surface salinity restoring)
(PID.TID 0000.0001) > EmPmRFile=      'ncep_emp.bin',
(PID.TID 0000.0001) > &
(PID.TID 0000.0001) 
(PID.TID 0000.0001) S/R INI_PARMS ; starts to read PARM01
(PID.TID 0000.0001) S/R INI_PARMS ; read PARM01 : OK
(PID.TID 0000.0001) S/R INI_PARMS: No request for barotropic solver
(PID.TID 0000.0001) S/R INI_PARMS: => Use implicitFreeSurface as default
(PID.TID 0000.0001) S/R INI_PARMS ; starts to read PARM02
(PID.TID 0000.0001) S/R INI_PARMS ; read PARM02 : OK
(PID.TID 0000.0001) S/R INI_PARMS ; starts to read PARM03
(PID.TID 0000.0001) S/R INI_PARMS ; read PARM03 : OK
(PID.TID 0000.0001) S/R INI_PARMS ; starts to read PARM04
(PID.TID 0000.0001) S/R INI_PARMS ; read PARM04 : OK
(PID.TID 0000.0001) S/R INI_PARMS ; starts to read PARM05
(PID.TID 0000.0001) S/R INI_PARMS ; read PARM05 : OK
(PID.TID 0000.0001)  PACKAGES_BOOT: opening data.pkg
(PID.TID 0000.0001)  OPEN_COPY_DATA_FILE: opening file data.pkg
(PID.TID 0000.0001) // =======================================================
(PID.TID 0000.0001) // Parameter file "data.pkg"
(PID.TID 0000.0001) // =======================================================
(PID.TID 0000.0001) ># Packages (lines beginning "#" are comments)
(PID.TID 0000.0001) > &PACKAGES
(PID.TID 0000.0001) > useGMRedi=.TRUE.,
(PID.TID 0000.0001) > usePTRACERS=.TRUE.,
(PID.TID 0000.0001) >#useMNC=.TRUE.,
(PID.TID 0000.0001) > &
(PID.TID 0000.0001) 
(PID.TID 0000.0001)  PACKAGES_BOOT: finished reading data.pkg
(PID.TID 0000.0001)  GM_READPARMS: opening data.gmredi
(PID.TID 0000.0001)  OPEN_COPY_DATA_FILE: opening file data.gmredi
(PID.TID 0000.0001) // =======================================================
(PID.TID 0000.0001) // Parameter file "data.gmredi"
(PID.TID 0000.0001) // =======================================================
(PID.TID 0000.0001) ># GM+Redi package parameters:
(PID.TID 0000.0001) >
(PID.TID 0000.0001) >#-from MOM :
(PID.TID 0000.0001) ># GM_background_K: 	G & Mc.W  diffusion coefficient
(PID.TID 0000.0001) ># GM_maxSlope    :	max slope of isopycnals
(PID.TID 0000.0001) ># GM_Scrit       :	transition for scaling diffusion coefficient
(PID.TID 0000.0001) ># GM_Sd          :	half width scaling for diffusion coefficient
(PID.TID 0000.0001) ># GM_taper_scheme:	slope clipping or one of the tapering schemes
(PID.TID 0000.0001) ># GM_Kmin_horiz  :	horizontal diffusion minimum value
(PID.TID 0000.0001) >
(PID.TID 0000.0001) >#-Option parameters (needs to "define" options in GMREDI_OPTIONS.h")
(PID.TID 0000.0001) ># GM_isopycK     :	isopycnal diffusion coefficient (default=GM_background_K)
(PID.TID 0000.0001) ># GM_AdvForm     :	turn on GM Advective form       (default=Skew flux form)
(PID.TID 0000.0001) >
(PID.TID 0000.0001) > &GM_PARM01
(PID.TID 0000.0001) >  GM_background_K    = 1.e+3,
(PID.TID 0000.0001) >  GM_taper_scheme    = 'gkw91',
(PID.TID 0000.0001) >  GM_maxSlope        = 1.e-2,
(PID.TID 0000.0001) >  GM_Kmin_horiz      = 50.,
(PID.TID 0000.0001) >  GM_Scrit           = 4.e-3,
(PID.TID 0000.0001) >  GM_Sd              = 1.e-3,
(PID.TID 0000.0001) ># GM_Visbeck_alpha   = 0.,
(PID.TID 0000.0001) ># GM_Visbeck_length  = 2.e+5,
(PID.TID 0000.0001) ># GM_Visbeck_depth   = 1.e+3,
(PID.TID 0000.0001) ># GM_Visbeck_maxval_K= 2.5e+3,
(PID.TID 0000.0001) > &
(PID.TID 0000.0001) >
(PID.TID 0000.0001) >
(PID.TID 0000.0001) 
(PID.TID 0000.0001)  GM_READPARMS: finished reading data.gmredi
(PID.TID 0000.0001)  PTRACERS_READPARMS: opening data.ptracers
(PID.TID 0000.0001)  OPEN_COPY_DATA_FILE: opening file data.ptracers
(PID.TID 0000.0001) // =======================================================
(PID.TID 0000.0001) // Parameter file "data.ptracers"
(PID.TID 0000.0001) // =======================================================
(PID.TID 0000.0001) ># Age Tracer set-up: No initial file means Age Tracer
(PID.TID 0000.0001) ># is automatically initialized uniformely to zero.
(PID.TID 0000.0001) > &PTRACERS_PARM01
(PID.TID 0000.0001) > PTRACERS_numInUse=1,
(PID.TID 0000.0001) > PTRACERS_advScheme=33,
(PID.TID 0000.0001) > PTRACERS_diffKh=0.E3,
(PID.TID 0000.0001) > PTRACERS_diffKr=3.E-5,
(PID.TID 0000.0001) >#PTRACERS_initialFile='Your_IC_file.bin',
(PID.TID 0000.0001) > PTRACERS_names(1)='Age_tracer',
(PID.TID 0000.0001) > &
(PID.TID 0000.0001) 
(PID.TID 0000.0001)  PTRACERS_READPARMS: finished reading data.ptracers
(PID.TID 0000.0001) // ===================================
(PID.TID 0000.0001) // PTRACERS parameters
(PID.TID 0000.0001) // ===================================
(PID.TID 0000.0001) PTRACERS_numInUse = /* number of tracers */
(PID.TID 0000.0001)                       1
(PID.TID 0000.0001)     ;
(PID.TID 0000.0001) PTRACERS_Iter0 = /* timestep number when tracers are initialized */
(PID.TID 0000.0001)                       0
(PID.TID 0000.0001)     ;
(PID.TID 0000.0001) PTRACERS_dumpFreq = /* Frequency^-1 for snapshot output (s) */
(PID.TID 0000.0001)                 8.640000000000000E+05
(PID.TID 0000.0001)     ;
(PID.TID 0000.0001) PTRACERS_taveFreq = /* Frequency^-1 for time-Aver. output (s) */
(PID.TID 0000.0001)                 8.640000000000000E+05
(PID.TID 0000.0001)     ;
(PID.TID 0000.0001) PTRACERS_useRecords = /* all tracers in 1 file */
(PID.TID 0000.0001)                   F
(PID.TID 0000.0001)     ;
(PID.TID 0000.0001) PTRACERS_timeave_mnc = /* use MNC for Tave output */
(PID.TID 0000.0001)                   F
(PID.TID 0000.0001)     ;
(PID.TID 0000.0001) PTRACERS_snapshot_mnc = /* use MNC for snapshot output */
(PID.TID 0000.0001)                   F
(PID.TID 0000.0001)     ;
(PID.TID 0000.0001) PTRACERS_pickup_write_mnc = /* use MNC for writing pickups */
(PID.TID 0000.0001)                   F
(PID.TID 0000.0001)     ;
(PID.TID 0000.0001) PTRACERS_pickup_read_mnc = /* use MNC for reading pickups */
(PID.TID 0000.0001)                   F
(PID.TID 0000.0001)     ;
(PID.TID 0000.0001)  -----------------------------------
(PID.TID 0000.0001)  tracer number :    1
(PID.TID 0000.0001) PTRACERS_advScheme = /* Advection Scheme */
(PID.TID 0000.0001)                      33
(PID.TID 0000.0001)     ;
(PID.TID 0000.0001) PTRACERS_ImplVertAdv = /* implicit vert. advection flag */
(PID.TID 0000.0001)                   F
(PID.TID 0000.0001)     ;
(PID.TID 0000.0001) PTRACERS_diffKh = /* Laplacian Diffusivity */
(PID.TID 0000.0001)                 0.000000000000000E+00
(PID.TID 0000.0001)     ;
(PID.TID 0000.0001) PTRACERS_diffK4 = /* Biharmonic Diffusivity */
(PID.TID 0000.0001)                 0.000000000000000E+00
(PID.TID 0000.0001)     ;
(PID.TID 0000.0001) PTRACERS_diffKrNr = /* Vertical Diffusivity */
(PID.TID 0000.0001)    15 @  3.000000000000000E-05              /* K =  1: 15 */
(PID.TID 0000.0001)     ;
(PID.TID 0000.0001) PTRACERS_useGMRedi = /* apply GM-Redi */
(PID.TID 0000.0001)                   T
(PID.TID 0000.0001)     ;
(PID.TID 0000.0001) PTRACERS_useKPP = /* apply KPP scheme */
(PID.TID 0000.0001)                   F
(PID.TID 0000.0001)     ;
(PID.TID 0000.0001) PTRACERS_ref = /* Reference vertical profile */
(PID.TID 0000.0001)    15 @  0.000000000000000E+00              /* K =  1: 15 */
(PID.TID 0000.0001)     ;
(PID.TID 0000.0001) PTRACERS_EvPrRn =/* tracer conc. in Evap. & Rain */
(PID.TID 0000.0001)                 1.234567000000000E+05
(PID.TID 0000.0001)     ;
(PID.TID 0000.0001)  -----------------------------------
(PID.TID 0000.0001) SET_PARMS: done
(PID.TID 0000.0001) Enter INI_VERTICAL_GRID: setInterFDr=    T ; setCenterDr=    F
(PID.TID 0000.0001) %MON XC_max                       =   3.5800000000000E+02
(PID.TID 0000.0001) %MON XC_min                       =   2.0000000000000E+00
(PID.TID 0000.0001) %MON XC_mean                      =   1.8000000000000E+02
(PID.TID 0000.0001) %MON XC_sd                        =   1.0391663325314E+02
(PID.TID 0000.0001) %MON XG_max                       =   3.5600000000000E+02
(PID.TID 0000.0001) %MON XG_min                       =   4.0000000000000E+00
(PID.TID 0000.0001) %MON XG_mean                      =   1.8000000000000E+02
(PID.TID 0000.0001) %MON XG_sd                        =   1.0276186062932E+02
(PID.TID 0000.0001) %MON DXC_max                      =   4.4443898815675E+05
(PID.TID 0000.0001) %MON DXC_min                      =   9.2460385861875E+04
(PID.TID 0000.0001) %MON DXC_mean                     =   3.1372497618153E+05
(PID.TID 0000.0001) %MON DXC_sd                       =   1.1216447457560E+05
(PID.TID 0000.0001) %MON DXF_max                      =   4.4443898815675E+05
(PID.TID 0000.0001) %MON DXF_min                      =   9.2460385861875E+04
(PID.TID 0000.0001) %MON DXF_mean                     =   3.1372497618153E+05
(PID.TID 0000.0001) %MON DXF_sd                       =   1.1216447457560E+05
(PID.TID 0000.0001) %MON DXG_max                      =   4.4470989340816E+05
(PID.TID 0000.0001) %MON DXG_min                      =   7.7223062580781E+04
(PID.TID 0000.0001) %MON DXG_mean                     =   3.1353386340261E+05
(PID.TID 0000.0001) %MON DXG_sd                       =   1.1256651772502E+05
(PID.TID 0000.0001) %MON DXV_max                      =   4.4470989340816E+05
(PID.TID 0000.0001) %MON DXV_min                      =   7.7223062580781E+04
(PID.TID 0000.0001) %MON DXV_mean                     =   3.1353386340261E+05
(PID.TID 0000.0001) %MON DXV_sd                       =   1.1256651772502E+05
(PID.TID 0000.0001) %MON YC_max                       =   7.8000000000000E+01
(PID.TID 0000.0001) %MON YC_min                       =  -7.8000000000000E+01
(PID.TID 0000.0001) %MON YC_mean                      =   0.0000000000000E+00
(PID.TID 0000.0001) %MON YC_sd                        =   4.6173585522461E+01
(PID.TID 0000.0001) %MON YG_max                       =   7.6000000000000E+01
(PID.TID 0000.0001) %MON YG_min                       =  -8.0000000000000E+01
(PID.TID 0000.0001) %MON YG_mean                      =  -2.0512820512821E+00
(PID.TID 0000.0001) %MON YG_sd                        =   4.6760682979564E+01
(PID.TID 0000.0001) %MON DYC_max                      =   4.4470989340816E+05
(PID.TID 0000.0001) %MON DYC_min                      =   4.4470989340816E+05
(PID.TID 0000.0001) %MON DYC_mean                     =   4.4470989340817E+05
(PID.TID 0000.0001) %MON DYC_sd                       =   1.4668330550194E-08
(PID.TID 0000.0001) %MON DYF_max                      =   4.4470989340816E+05
(PID.TID 0000.0001) %MON DYF_min                      =   4.4470989340816E+05
(PID.TID 0000.0001) %MON DYF_mean                     =   4.4470989340817E+05
(PID.TID 0000.0001) %MON DYF_sd                       =   1.4668330550194E-08
(PID.TID 0000.0001) %MON DYG_max                      =   4.4470989340816E+05
(PID.TID 0000.0001) %MON DYG_min                      =   4.4470989340816E+05
(PID.TID 0000.0001) %MON DYG_mean                     =   4.4470989340817E+05
(PID.TID 0000.0001) %MON DYG_sd                       =   1.4668330550194E-08
(PID.TID 0000.0001) %MON DYU_max                      =   4.4470989340816E+05
(PID.TID 0000.0001) %MON DYU_min                      =   4.4470989340816E+05
(PID.TID 0000.0001) %MON DYU_mean                     =   4.4470989340817E+05
(PID.TID 0000.0001) %MON DYU_sd                       =   1.4668330550194E-08
(PID.TID 0000.0001) %MON RA_max                       =   1.9760627980089E+11
(PID.TID 0000.0001) %MON RA_min                       =   4.1109698667290E+10
(PID.TID 0000.0001) %MON RA_mean                      =   1.3948826965196E+11
(PID.TID 0000.0001) %MON RA_sd                        =   4.9870522472902E+10
(PID.TID 0000.0001) %MON RAW_max                      =   1.9760627980089E+11
(PID.TID 0000.0001) %MON RAW_min                      =   4.1109698667290E+10
(PID.TID 0000.0001) %MON RAW_mean                     =   1.3948826965196E+11
(PID.TID 0000.0001) %MON RAW_sd                       =   4.9870522472902E+10
(PID.TID 0000.0001) %MON RAS_max                      =   1.9772672958215E+11
(PID.TID 0000.0001) %MON RAS_min                      =   3.4334886267983E+10
(PID.TID 0000.0001) %MON RAS_mean                     =   1.3940329716694E+11
(PID.TID 0000.0001) %MON RAS_sd                       =   5.0049278732353E+10
(PID.TID 0000.0001) %MON RAZ_max                      =   1.9772672958215E+11
(PID.TID 0000.0001) %MON RAZ_min                      =   3.4334886267983E+10
(PID.TID 0000.0001) %MON RAZ_mean                     =   1.3940329716694E+11
(PID.TID 0000.0001) %MON RAZ_sd                       =   5.0049278732353E+10
(PID.TID 0000.0001) %MON AngleCS_max                  =   1.0000000000000E+00
(PID.TID 0000.0001) %MON AngleCS_min                  =   1.0000000000000E+00
(PID.TID 0000.0001) %MON AngleCS_mean                 =   1.0000000000000E+00
(PID.TID 0000.0001) %MON AngleCS_sd                   =   0.0000000000000E+00
(PID.TID 0000.0001) %MON AngleSN_max                  =   0.0000000000000E+00
(PID.TID 0000.0001) %MON AngleSN_min                  =   0.0000000000000E+00
(PID.TID 0000.0001) %MON AngleSN_mean                 =   0.0000000000000E+00
(PID.TID 0000.0001) %MON AngleSN_sd                   =   0.0000000000000E+00
(PID.TID 0000.0001)  MDS_READ_FIELD: opening global file: bathymetry.bin
(PID.TID 0000.0001) // =======================================================
(PID.TID 0000.0001) // Field Model R_low (ini_masks_etc) at iteration          1
(PID.TID 0000.0001) // CMIN =         -5.200000000000000E+03
(PID.TID 0000.0001) // CMAX =         -1.200000000000000E+02
(PID.TID 0000.0001) // CINT =          1.881481481481482E+02
(PID.TID 0000.0001) // SYMBOLS (CMIN->CMAX): -abcdefghijklmnopqrstuvwxyz+
(PID.TID 0000.0001) //                  0.0: .
(PID.TID 0000.0001) // RANGE I (Lo:Hi:Step):(  -1:  92:   1)
(PID.TID 0000.0001) // RANGE J (Lo:Hi:Step):(  42:  -1:  -1)
(PID.TID 0000.0001) // RANGE K (Lo:Hi:Step):(   1:   1:   1)
(PID.TID 0000.0001) // =======================================================
(PID.TID 0000.0001) K =   1
(PID.TID 0000.0001) //                I=8       I=18      I=28      I=38      I=44      I=54      I=64      I=74      I=84
(PID.TID 0000.0001) // |--J--|101234567|901234567|901234567|901234567|901234567|567890123|567890123|567890123|567890123|56789012
(PID.TID 0000.0001) //     42 ............................................zyxxmyxxmgfeeefefgimnpwwwy..+zyy.....yyyyoiiihhz+.....
(PID.TID 0000.0001) //     41 ..................................................................................................
(PID.TID 0000.0001) //     40 qlloqz+.++++zzz++++++......................................................................+++qllo
(PID.TID 0000.0001) //     39 slloorzzzzzzzzz+...++.........................................................yxxz........+zvusllo
(PID.TID 0000.0001) //     38 mqpporzzzzzz+++...............................................................zxxy+......zyyvsmqpp
(PID.TID 0000.0001) //     37 mmmuz......................................................................++...zy+...yttyy.+smmmu
(PID.TID 0000.0001) //     36 utt+.........................................mm++mm++....................+++++++znmm.yoowssvuyutt+
(PID.TID 0000.0001) //     35 ++++.................................+zzz..rrmmkkmmkk+...+gghn...........+++....+nmiijlsoopuww++++
(PID.TID 0000.0001) //     34 .....................................+vvy.ggqyxv+yxv+y.ccdffhim..................+nihhikkihhm+....
(PID.TID 0000.0001) //     33 +.....................................uuz---h----------aaabdefin+.................zqvddflifffw+...
(PID.TID 0000.0001) //     32 +.....................................+t----h-------------acdfgnn................+++gdffkofffm+...
(PID.TID 0000.0001) //     31 ......................................-----ad------------abddegil..............qbaafccdhqqgddm....
(PID.TID 0000.0001) //     30 .....................................f----b--b---b------------abd............zfbb--fbcdosjfddi....
(PID.TID 0000.0001) //     29 ...................................tu----e---fjg-fjg----------abdf...........eaac--abfmijaadgi....
(PID.TID 0000.0001) //     28 .................................+xfl-----------------------bdedefi.........qbaa---aemfbbaaejz....
(PID.TID 0000.0001) //     27 ................xx..............+wfgfpf--------ea--eallc---bbbccefgi...+++x.qb-----akfa---ah......
(PID.TID 0000.0001) //     26 ................xnn...........+vd---dna------a--aa--aicfna---aabdfghku.++xssuy-----bgca---ci......
(PID.TID 0000.0001) //     25 ................iiik...oo+...+ivd---doaa-bc--ilglilglf--aa---aabcghhkll...ssum+xaaacjbaabdjk......
(PID.TID 0000.0001) //     24 ..............xnheeft.kkk+...uii.aagdm----aa---------a-------bbbcdefjljjju.zummwwbbchba--abi......
(PID.TID 0000.0001) //     23 ..............xgheefp.iikw...uuw..fihi----fed---------eaaa--bbbbcdfflkjiiiq....zykccefa--abd......
(PID.TID 0000.0001) //     22 uss...........bbelffslffkk...zz.wqkeeqoheccdfa---a-----egabaabcdddegghliiiqq......xeeehheehccquss.
(PID.TID 0000.0001) //     21 bbeir........nbbcdjhqdddiiz.....wqfeelgghmedea---a-----bibbcddddddefghklnqoo........ieeflhgcccbbei
(PID.TID 0000.0001) //     20 bbder.......ldcccdgkccccidd......z.vkkktqqhegg---g----aaacddddddddefghkiiijl.........nhfa--gfcbbde
(PID.TID 0000.0001) //     19 cdaaf.......kddosggpaaaibbccx...+z+.....r+nlec---c---agaaabcddccddefikfgffff...........d---cjhcdaa
(PID.TID 0000.0001) //     18 d---d.......kglggvliaaaibbcaaeaiv++...qqzolhecccfcccfdgkaabcdfccdeeikgfgffdd+..........d---djhd---
(PID.TID 0000.0001) //     17 c---c.......l.feewlfaaaoaa----aiv.....qqnllslmlofmlofcdbaacceffffhhligfigeddj.........hd---ckhc---
(PID.TID 0000.0001) //     16 ba--c......tn.ddgnlfdaaqa-----lv.......vnllvllnwvlnwv--accivomfffhilhgfffeddjf........re--aeigba--
(PID.TID 0000.0001) //     15 b--dpz....+ll.ccdfhmdddlc----av.........otsxoomv-omv---abccddfihgijkhgfffeejfff......+fd---ckfb--d
(PID.TID 0000.0001) //     14 c--mcl....weeqbaafilkfend--eagy.........hhstofft-fft----aacdheefijkmjhhjijiffff.....zlfdaaadlfc--m
(PID.TID 0000.0001) //     13 cclbbg....nccobaaiddgkffqrqeaal.........eeutqfft-fft------aaceeffhijlkjhhigfffq....+jgfodccflhcclb
(PID.TID 0000.0001) //     12 hgaaacw+iiicclemhdddfliigfdcaabfaaaz....ccsurqpc-qpc--------abcifffikiiihhggff.....kbbbdfffglhhgaa
(PID.TID 0000.0001) //     11 gcaaacbbifccennhbbdefnihgfdccaaaa----..dcccnt.nca.ncab-------aabcdfilhggjiggff....l---abcefjlkgcaa
(PID.TID 0000.0001) //     10 fcaaccbdaacfrllfbbdegkmmljhfdddba----d.dcccfx.nyr.nyrebaba----abcdgilhfeegijgi..+w--aa-abcfilkfcaa
(PID.TID 0000.0001) //      9 ffcdcccaaaoqsolfdeehikihhlllgfedcccccdmdcccf.vyfavyfaaaaaaaa--abdehmjhfeeefglv.++w-----abcdfklffcd
(PID.TID 0000.0001) //      8 iffjklcaafddffeeccvznkfffhhhlkjifgjkkfeeddfsyvcaavcaaaaaaccdcccdfgjligedbbceg+.++xffn--cfddefliffj
(PID.TID 0000.0001) //      7 mqnnbbkkf--bmbaabbgtykfddeffeeddccdfhlffeelfbaaaaaaaaaacddeghgjgjlligeddaaabedfiiiiiisvkfkecchmqnn
(PID.TID 0000.0001) //      6 ca-------------aabcelttdddedddddccccdfkkiiffbaaaaaaaabcdgimmkmefecaaabbbaaabbdfiiiiispmmregifcca--
(PID.TID 0000.0001) //      5 -------a-------aaccehhhiddeddddddcccdfiikomodddefddefffmlmigedccaaaaaaaababbbdfiijsqgeccccbaa-----
(PID.TID 0000.0001) //      4 -ahebaabbbbbeihffgijiiiijpywnnpokkomkiiijmmmolkomlkommmgffeeedccaaaaaabbcccefhmz..yjgeccccbaa--ahe
(PID.TID 0000.0001) //      3 ffhhrpjiiwyy............................yxotmjjjjjjjjgfeeeeeeddeffffheddeghjkyy..yqjgeddccdbbgffhh
(PID.TID 0000.0001) //      2 ............................................zyxxmyxxmgfeeefefgimnpwwwy..+zyy.....yyyyoiiihhz+.....
(PID.TID 0000.0001) //      1 ..................................................................................................
(PID.TID 0000.0001) //      0 qlloqz+.++++zzz++++++......................................................................+++qllo
(PID.TID 0000.0001) //     -1 slloorzzzzzzzzz+...++.........................................................yxxz........+zvusllo
(PID.TID 0000.0001) // =======================================================
(PID.TID 0000.0001) // END OF FIELD                                          =
(PID.TID 0000.0001) // =======================================================
(PID.TID 0000.0001) 
(PID.TID 0000.0001) // =======================================================
(PID.TID 0000.0001) // Field Model Ro_surf (ini_masks_etc) at iteration          1
(PID.TID 0000.0001) // CMIN =          1.000000000000000E+32
(PID.TID 0000.0001) // CMAX =         -1.000000000000000E+32
(PID.TID 0000.0001) // CINT =          0.000000000000000E+00
(PID.TID 0000.0001) // SYMBOLS (CMIN->CMAX): -abcdefghijklmnopqrstuvwxyz+
(PID.TID 0000.0001) //                  0.0: .
(PID.TID 0000.0001) // RANGE I (Lo:Hi:Step):(  -1:  92:   1)
(PID.TID 0000.0001) // RANGE J (Lo:Hi:Step):(  42:  -1:  -1)
(PID.TID 0000.0001) // RANGE K (Lo:Hi:Step):(   1:   1:   1)
(PID.TID 0000.0001) // =======================================================
(PID.TID 0000.0001) // =======================================================
(PID.TID 0000.0001) // END OF FIELD                                          =
(PID.TID 0000.0001) // =======================================================
(PID.TID 0000.0001) 
(PID.TID 0000.0001) // =======================================================
(PID.TID 0000.0001) // Field hFacC at iteration          1
(PID.TID 0000.0001) // CMIN =          1.000000000000000E+00
(PID.TID 0000.0001) // CMAX =          1.000000000000000E+00
(PID.TID 0000.0001) // CINT =          0.000000000000000E+00
(PID.TID 0000.0001) // SYMBOLS (CMIN->CMAX): -abcdefghijklmnopqrstuvwxyz+
(PID.TID 0000.0001) //                  0.0: .
(PID.TID 0000.0001) // RANGE I (Lo:Hi:Step):(  -1:  92:   1)
(PID.TID 0000.0001) // RANGE J (Lo:Hi:Step):(  42:  -1:  -1)
(PID.TID 0000.0001) // RANGE K (Lo:Hi:Step):(   1:   1:   1)
(PID.TID 0000.0001) // =======================================================
(PID.TID 0000.0001) // =======================================================
(PID.TID 0000.0001) // END OF FIELD                                          =
(PID.TID 0000.0001) // =======================================================
(PID.TID 0000.0001) 
(PID.TID 0000.0001) // =======================================================
(PID.TID 0000.0001) // Field hFacW at iteration          1
(PID.TID 0000.0001) // CMIN =          1.000000000000000E+00
(PID.TID 0000.0001) // CMAX =          1.000000000000000E+00
(PID.TID 0000.0001) // CINT =          0.000000000000000E+00
(PID.TID 0000.0001) // SYMBOLS (CMIN->CMAX): -abcdefghijklmnopqrstuvwxyz+
(PID.TID 0000.0001) //                  0.0: .
(PID.TID 0000.0001) // RANGE I (Lo:Hi:Step):(  -1:  92:   1)
(PID.TID 0000.0001) // RANGE J (Lo:Hi:Step):(  42:  -1:  -1)
(PID.TID 0000.0001) // RANGE K (Lo:Hi:Step):(   1:   1:   1)
(PID.TID 0000.0001) // =======================================================
(PID.TID 0000.0001) // =======================================================
(PID.TID 0000.0001) // END OF FIELD                                          =
(PID.TID 0000.0001) // =======================================================
(PID.TID 0000.0001) 
(PID.TID 0000.0001) // =======================================================
(PID.TID 0000.0001) // Field hFacS at iteration          1
(PID.TID 0000.0001) // CMIN =          1.000000000000000E+00
(PID.TID 0000.0001) // CMAX =          1.000000000000000E+00
(PID.TID 0000.0001) // CINT =          0.000000000000000E+00
(PID.TID 0000.0001) // SYMBOLS (CMIN->CMAX): -abcdefghijklmnopqrstuvwxyz+
(PID.TID 0000.0001) //                  0.0: .
(PID.TID 0000.0001) // RANGE I (Lo:Hi:Step):(  -1:  92:   1)
(PID.TID 0000.0001) // RANGE J (Lo:Hi:Step):(  42:  -1:  -1)
(PID.TID 0000.0001) // RANGE K (Lo:Hi:Step):(   1:   1:   1)
(PID.TID 0000.0001) // =======================================================
(PID.TID 0000.0001) // =======================================================
(PID.TID 0000.0001) // END OF FIELD                                          =
(PID.TID 0000.0001) // =======================================================
(PID.TID 0000.0001) 
(PID.TID 0000.0001) 
(PID.TID 0000.0001) // ===================================
(PID.TID 0000.0001) // GAD parameters :
(PID.TID 0000.0001) // ===================================
(PID.TID 0000.0001) tempAdvScheme =   /* Temp. Horiz.Advection scheme selector */
(PID.TID 0000.0001)                       2
(PID.TID 0000.0001)     ;
(PID.TID 0000.0001) tempVertAdvScheme =   /* Temp. Vert. Advection scheme selector */
(PID.TID 0000.0001)                       2
(PID.TID 0000.0001)     ;
(PID.TID 0000.0001) tempMultiDimAdvec =   /* use Muti-Dim Advec method for Temp */
(PID.TID 0000.0001)                   F
(PID.TID 0000.0001)     ;
(PID.TID 0000.0001) tempSOM_Advection = /* use 2nd Order Moment Advection for Temp */
(PID.TID 0000.0001)                   F
(PID.TID 0000.0001)     ;
(PID.TID 0000.0001) AdamsBashforthGt = /* apply Adams-Bashforth extrapolation on Gt */
(PID.TID 0000.0001)                   T
(PID.TID 0000.0001)     ;
(PID.TID 0000.0001) AdamsBashforth_T = /* apply Adams-Bashforth extrapolation on Temp */
(PID.TID 0000.0001)                   F
(PID.TID 0000.0001)     ;
(PID.TID 0000.0001) saltAdvScheme =   /* Salt. Horiz.advection scheme selector */
(PID.TID 0000.0001)                       2
(PID.TID 0000.0001)     ;
(PID.TID 0000.0001) saltVertAdvScheme =   /* Salt. Vert. Advection scheme selector */
(PID.TID 0000.0001)                       2
(PID.TID 0000.0001)     ;
(PID.TID 0000.0001) saltMultiDimAdvec =   /* use Muti-Dim Advec method for Salt */
(PID.TID 0000.0001)                   F
(PID.TID 0000.0001)     ;
(PID.TID 0000.0001) saltSOM_Advection = /* use 2nd Order Moment Advection for Salt */
(PID.TID 0000.0001)                   F
(PID.TID 0000.0001)     ;
(PID.TID 0000.0001) AdamsBashforthGs = /* apply Adams-Bashforth extrapolation on Gs */
(PID.TID 0000.0001)                   T
(PID.TID 0000.0001)     ;
(PID.TID 0000.0001) AdamsBashforth_S = /* apply Adams-Bashforth extrapolation on Salt */
(PID.TID 0000.0001)                   F
(PID.TID 0000.0001)     ;
(PID.TID 0000.0001) // ===================================
(PID.TID 0000.0001) GAD_CHECK: #define ALLOW_GENERIC_ADVDIFF
(PID.TID 0000.0001) GMREDI_CHECK: #define GMREDI
(PID.TID 0000.0001) GM_AdvForm =  /* if FALSE => use SkewFlux Form */
(PID.TID 0000.0001)                   F
(PID.TID 0000.0001)     ;
(PID.TID 0000.0001) GM_AdvSeparate = /* Calc Bolus & Euler Adv. separately */
(PID.TID 0000.0001)                   F
(PID.TID 0000.0001)     ;
(PID.TID 0000.0001) GM_ExtraDiag =  /* Tensor Extra Diag (line 1&2) non 0 */
(PID.TID 0000.0001)                   F
(PID.TID 0000.0001)     ;
(PID.TID 0000.0001) GM_isopycK =   /* Background Isopyc. Diffusivity ( m^2/s ) */
(PID.TID 0000.0001)                 1.000000000000000E+03
(PID.TID 0000.0001)     ;
(PID.TID 0000.0001)  GM_skewflx*K =   /* Background GM_SkewFlx Diffusivity ( m^2/s ) */
(PID.TID 0000.0001)                 1.000000000000000E+03
(PID.TID 0000.0001)     ;
(PID.TID 0000.0001)  GM_advec*K =   /* Backg. GM-Advec(=Bolus) Diffusivity ( m^2/s ) */
(PID.TID 0000.0001)                 0.000000000000000E+00
(PID.TID 0000.0001)     ;
(PID.TID 0000.0001)  GM_Visbeck_alpha =   /* Visbeck alpha coeff. ( ) */
(PID.TID 0000.0001)                 0.000000000000000E+00
(PID.TID 0000.0001)     ;
(PID.TID 0000.0001)  Tapering/Cliping : gkw91
(PID.TID 0000.0001)  GM_Small_Number =  /* epsilon used in slope calc */
(PID.TID 0000.0001)                 9.999999999999999E-21
(PID.TID 0000.0001)     ;
(PID.TID 0000.0001)  GM_slopeSqCutoff =  /* Slope^2 cut-off value */
(PID.TID 0000.0001)                 1.000000000000000E+48
(PID.TID 0000.0001)     ;
(PID.TID 0000.0001) %MON fCori_max                    =   1.4265546244797E-04
(PID.TID 0000.0001) %MON fCori_min                    =  -1.4265546244797E-04
(PID.TID 0000.0001) %MON fCori_mean                   =  -1.5058363506743E-21
(PID.TID 0000.0001) %MON fCori_sd                     =   9.6599226301546E-05
(PID.TID 0000.0001) %MON fCoriG_max                   =   1.4151032568025E-04
(PID.TID 0000.0001) %MON fCoriG_min                   =  -1.4362679550910E-04
(PID.TID 0000.0001) %MON fCoriG_mean                  =  -3.6827383463871E-06
(PID.TID 0000.0001) %MON fCoriG_sd                    =   9.7777153928920E-05
(PID.TID 0000.0001) %MON fCoriCos_max                 =   1.4575362704741E-04
(PID.TID 0000.0001) %MON fCoriCos_min                 =   3.0322354601388E-05
(PID.TID 0000.0001) %MON fCoriCos_mean                =   1.0288600773632E-04
(PID.TID 0000.0001) %MON fCoriCos_sd                  =   3.6784304327266E-05
(PID.TID 0000.0001) INI_CG2D: CG2D normalisation factor =  6.5682677425711703E-05
(PID.TID 0000.0001) 
(PID.TID 0000.0001) CONFIG_CHECK: OK
(PID.TID 0000.0001) // =======================================================
(PID.TID 0000.0001) // Model configuration
(PID.TID 0000.0001) // =======================================================
(PID.TID 0000.0001) //
(PID.TID 0000.0001) // "Physical" paramters ( PARM01 in namelist )
(PID.TID 0000.0001) //
(PID.TID 0000.0001) buoyancyRelation = /* Type of relation to get Buoyancy */
(PID.TID 0000.0001)               'OCEANIC'
(PID.TID 0000.0001)     ;
(PID.TID 0000.0001) fluidIsAir  =  /* fluid major constituent is Air */
(PID.TID 0000.0001)                   F
(PID.TID 0000.0001)     ;
(PID.TID 0000.0001) fluidIsWater=  /* fluid major constituent is Water */
(PID.TID 0000.0001)                   T
(PID.TID 0000.0001)     ;
(PID.TID 0000.0001) usingPCoords =  /* use p (or p*) vertical coordinate */
(PID.TID 0000.0001)                   F
(PID.TID 0000.0001)     ;
(PID.TID 0000.0001) usingZCoords =  /* use z (or z*) vertical coordinate */
(PID.TID 0000.0001)                   T
(PID.TID 0000.0001)     ;
(PID.TID 0000.0001) tRef =   /* Reference temperature profile ( oC or K ) */
(PID.TID 0000.0001)    15 @  2.000000000000000E+01              /* K =  1: 15 */
(PID.TID 0000.0001)     ;
(PID.TID 0000.0001) sRef =   /* Reference salinity profile ( psu ) */
(PID.TID 0000.0001)    15 @  3.500000000000000E+01              /* K =  1: 15 */
(PID.TID 0000.0001)     ;
(PID.TID 0000.0001) viscAh =   /* Lateral eddy viscosity ( m^2/s ) */
(PID.TID 0000.0001)                 5.000000000000000E+05
(PID.TID 0000.0001)     ;
(PID.TID 0000.0001) viscAhMax =   /* Maximum lateral eddy viscosity ( m^2/s ) */
(PID.TID 0000.0001)                 1.000000000000000E+21
(PID.TID 0000.0001)     ;
(PID.TID 0000.0001) viscAhGrid =   /* Grid dependent lateral eddy viscosity ( non-dim. ) */
(PID.TID 0000.0001)                 0.000000000000000E+00
(PID.TID 0000.0001)     ;
(PID.TID 0000.0001) useFullLeith =   /* Use Full Form of Leith Viscosity on/off flag*/
(PID.TID 0000.0001)                   F
(PID.TID 0000.0001)     ;
(PID.TID 0000.0001) useStrainTensionVisc =   /* Use StrainTension Form of Viscous Operator on/off flag*/
(PID.TID 0000.0001)                   F
(PID.TID 0000.0001)     ;
(PID.TID 0000.0001) useAreaViscLength =   /* Use area for visc length instead of geom. mean*/
(PID.TID 0000.0001)                   F
(PID.TID 0000.0001)     ;
(PID.TID 0000.0001) viscC2leith = /* Leith harmonic visc. factor (on grad(vort),non-dim.) */
(PID.TID 0000.0001)                 0.000000000000000E+00
(PID.TID 0000.0001)     ;
(PID.TID 0000.0001) viscC2leithD = /* Leith harmonic viscosity factor (on grad(div),non-dim.) */
(PID.TID 0000.0001)                 0.000000000000000E+00
(PID.TID 0000.0001)     ;
(PID.TID 0000.0001) viscC2smag =   /* Smagorinsky harmonic viscosity factor (non-dim.) */
(PID.TID 0000.0001)                 0.000000000000000E+00
(PID.TID 0000.0001)     ;
(PID.TID 0000.0001) viscA4 =   /* Lateral biharmonic viscosity ( m^4/s ) */
(PID.TID 0000.0001)                 0.000000000000000E+00
(PID.TID 0000.0001)     ;
(PID.TID 0000.0001) viscA4Max =   /* Maximum biharmonic viscosity ( m^2/s ) */
(PID.TID 0000.0001)                 1.000000000000000E+21
(PID.TID 0000.0001)     ;
(PID.TID 0000.0001) viscA4Grid =   /* Grid dependent biharmonic viscosity ( non-dim. ) */
(PID.TID 0000.0001)                 0.000000000000000E+00
(PID.TID 0000.0001)     ;
(PID.TID 0000.0001) viscC4leith = /* Leith biharm viscosity factor (on grad(vort), non-dim.) */
(PID.TID 0000.0001)                 0.000000000000000E+00
(PID.TID 0000.0001)     ;
(PID.TID 0000.0001) viscC4leithD = /* Leith biharm viscosity factor (on grad(div), non-dim.) */
(PID.TID 0000.0001)                 0.000000000000000E+00
(PID.TID 0000.0001)     ;
(PID.TID 0000.0001) viscC4Smag = /* Smagorinsky biharm viscosity factor (non-dim) */
(PID.TID 0000.0001)                 0.000000000000000E+00
(PID.TID 0000.0001)     ;
(PID.TID 0000.0001) no_slip_sides =  /* Viscous BCs: No-slip sides */
(PID.TID 0000.0001)                   T
(PID.TID 0000.0001)     ;
(PID.TID 0000.0001) sideDragFactor = /* side-drag scaling factor (non-dim) */
(PID.TID 0000.0001)                 2.000000000000000E+00
(PID.TID 0000.0001)     ;
(PID.TID 0000.0001) viscAr =   /* Vertical eddy viscosity ( units of r^2/s ) */
(PID.TID 0000.0001)                 1.000000000000000E-03
(PID.TID 0000.0001)     ;
(PID.TID 0000.0001) no_slip_bottom =  /* Viscous BCs: No-slip bottom */
(PID.TID 0000.0001)                   T
(PID.TID 0000.0001)     ;
(PID.TID 0000.0001) bottomDragLinear = /* linear bottom-drag coefficient ( 1/s ) */
(PID.TID 0000.0001)                 0.000000000000000E+00
(PID.TID 0000.0001)     ;
(PID.TID 0000.0001) bottomDragQuadratic = /* quadratic bottom-drag coeff. ( 1/m ) */
(PID.TID 0000.0001)                 0.000000000000000E+00
(PID.TID 0000.0001)     ;
(PID.TID 0000.0001) diffKhT =   /* Laplacian diffusion of heat laterally ( m^2/s ) */
(PID.TID 0000.0001)                 0.000000000000000E+00
(PID.TID 0000.0001)     ;
(PID.TID 0000.0001) diffK4T =   /* Bihaarmonic diffusion of heat laterally ( m^4/s ) */
(PID.TID 0000.0001)                 0.000000000000000E+00
(PID.TID 0000.0001)     ;
(PID.TID 0000.0001) diffKhS =   /* Laplacian diffusion of salt laterally ( m^2/s ) */
(PID.TID 0000.0001)                 0.000000000000000E+00
(PID.TID 0000.0001)     ;
(PID.TID 0000.0001) diffK4S =   /* Bihaarmonic diffusion of salt laterally ( m^4/s ) */
(PID.TID 0000.0001)                 0.000000000000000E+00
(PID.TID 0000.0001)     ;
(PID.TID 0000.0001) diffKrNrT = /* vertical profile of vertical diffusion of Temp ( m^2/s )*/
(PID.TID 0000.0001)    15 @  3.000000000000000E-05              /* K =  1: 15 */
(PID.TID 0000.0001)     ;
(PID.TID 0000.0001) diffKrNrS = /* vertical profile of vertical diffusion of Salt ( m^2/s )*/
(PID.TID 0000.0001)    15 @  3.000000000000000E-05              /* K =  1: 15 */
(PID.TID 0000.0001)     ;
(PID.TID 0000.0001) diffKrBL79surf =   /* Surface diffusion for Bryan and Lewis 1979 ( m^2/s ) */
(PID.TID 0000.0001)                 0.000000000000000E+00
(PID.TID 0000.0001)     ;
(PID.TID 0000.0001) diffKrBL79deep =   /* Deep diffusion for Bryan and Lewis 1979 ( m^2/s ) */
(PID.TID 0000.0001)                 0.000000000000000E+00
(PID.TID 0000.0001)     ;
(PID.TID 0000.0001) diffKrBL79scl =   /* Depth scale for Bryan and Lewis 1979 ( m ) */
(PID.TID 0000.0001)                 2.000000000000000E+02
(PID.TID 0000.0001)     ;
(PID.TID 0000.0001) diffKrBL79Ho =   /* Turning depth for Bryan and Lewis 1979 ( m ) */
(PID.TID 0000.0001)                -2.000000000000000E+03
(PID.TID 0000.0001)     ;
(PID.TID 0000.0001) ivdc_kappa = /* Implicit Vertical Diffusivity for Convection ( m^2/s ) */
(PID.TID 0000.0001)                 1.000000000000000E+02
(PID.TID 0000.0001)     ;
(PID.TID 0000.0001) hMixCriteria=  /* Criteria for mixed-layer diagnostic */
(PID.TID 0000.0001)                -8.000000000000000E-01
(PID.TID 0000.0001)     ;
(PID.TID 0000.0001) eosType =  /* Type of Equation of State */
(PID.TID 0000.0001)               'JMD95Z'
(PID.TID 0000.0001)     ;
(PID.TID 0000.0001) tAlpha =   /* Linear EOS thermal expansion coefficient ( 1/oC ) */
(PID.TID 0000.0001)                 1.234567000000000E+05
(PID.TID 0000.0001)     ;
(PID.TID 0000.0001) sBeta =   /* Linear EOS haline contraction coefficient ( 1/psu ) */
(PID.TID 0000.0001)                 1.234567000000000E+05
(PID.TID 0000.0001)     ;
(PID.TID 0000.0001) rhonil =   /* Reference density ( kg/m^3 ) */
(PID.TID 0000.0001)                 1.035000000000000E+03
(PID.TID 0000.0001)     ;
(PID.TID 0000.0001) rhoConst =   /* Reference density ( kg/m^3 ) */
(PID.TID 0000.0001)                 1.035000000000000E+03
(PID.TID 0000.0001)     ;
(PID.TID 0000.0001) rhoFacC = /* normalized Reference density @ cell-Center (-) */
(PID.TID 0000.0001)    15 @  1.000000000000000E+00              /* K =  1: 15 */
(PID.TID 0000.0001)     ;
(PID.TID 0000.0001) rhoFacF = /* normalized Reference density @ W-Interface (-) */
(PID.TID 0000.0001)    16 @  1.000000000000000E+00              /* K =  1: 16 */
(PID.TID 0000.0001)     ;
(PID.TID 0000.0001) rhoConstFresh =   /* Reference density ( kg/m^3 ) */
(PID.TID 0000.0001)                 1.000000000000000E+03
(PID.TID 0000.0001)     ;
(PID.TID 0000.0001) gravity =   /* Gravitational acceleration ( m/s^2 ) */
(PID.TID 0000.0001)                 9.810000000000000E+00
(PID.TID 0000.0001)     ;
(PID.TID 0000.0001) gBaro =   /* Barotropic gravity ( m/s^2 ) */
(PID.TID 0000.0001)                 9.810000000000000E+00
(PID.TID 0000.0001)     ;
(PID.TID 0000.0001) rotationPeriod =   /* Rotation Period ( s ) */
(PID.TID 0000.0001)                 8.616400000000000E+04
(PID.TID 0000.0001)     ;
(PID.TID 0000.0001) omega =   /* Angular velocity ( rad/s ) */
(PID.TID 0000.0001)                 7.292123516990375E-05
(PID.TID 0000.0001)     ;
(PID.TID 0000.0001) f0 =   /* Reference coriolis parameter ( 1/s ) */
(PID.TID 0000.0001)                 1.000000000000000E-04
(PID.TID 0000.0001)     ;
(PID.TID 0000.0001) beta =   /* Beta ( 1/(m.s) ) */
(PID.TID 0000.0001)                 9.999999999999999E-12
(PID.TID 0000.0001)     ;
(PID.TID 0000.0001) freeSurfFac =   /* Implicit free surface factor */
(PID.TID 0000.0001)                 1.000000000000000E+00
(PID.TID 0000.0001)     ;
(PID.TID 0000.0001) implicitFreeSurface =   /* Implicit free surface on/off flag */
(PID.TID 0000.0001)                   T
(PID.TID 0000.0001)     ;
(PID.TID 0000.0001) rigidLid =   /* Rigid lid on/off flag */
(PID.TID 0000.0001)                   F
(PID.TID 0000.0001)     ;
(PID.TID 0000.0001) implicSurfPress =   /* Surface Pressure implicit factor (0-1)*/
(PID.TID 0000.0001)                 1.000000000000000E+00
(PID.TID 0000.0001)     ;
(PID.TID 0000.0001) implicDiv2Dflow =   /* Barot. Flow Div. implicit factor (0-1)*/
(PID.TID 0000.0001)                 1.000000000000000E+00
(PID.TID 0000.0001)     ;
(PID.TID 0000.0001) exactConserv =   /* Exact Volume Conservation on/off flag*/
(PID.TID 0000.0001)                   T
(PID.TID 0000.0001)     ;
(PID.TID 0000.0001) linFSConserveTr =   /* Tracer correction for Lin Free Surface on/off flag*/
(PID.TID 0000.0001)                   F
(PID.TID 0000.0001)     ;
(PID.TID 0000.0001) uniformLin_PhiSurf =   /* use uniform Bo_surf on/off flag*/
(PID.TID 0000.0001)                   T
(PID.TID 0000.0001)     ;
(PID.TID 0000.0001) nonlinFreeSurf =   /* Non-linear Free Surf. options (-1,0,1,2,3)*/
(PID.TID 0000.0001)                       0
(PID.TID 0000.0001)     ;
(PID.TID 0000.0001)      -1,0= Off ; 1,2,3= On, 2=+rescale gU,gV, 3=+update cg2d solv.
(PID.TID 0000.0001) hFacInf =   /* lower threshold for hFac (nonlinFreeSurf only)*/
(PID.TID 0000.0001)                 2.000000000000000E-01
(PID.TID 0000.0001)     ;
(PID.TID 0000.0001) hFacSup =   /* upper threshold for hFac (nonlinFreeSurf only)*/
(PID.TID 0000.0001)                 2.000000000000000E+00
(PID.TID 0000.0001)     ;
(PID.TID 0000.0001) select_rStar =   /* r* Coordinate options (not yet implemented)*/
(PID.TID 0000.0001)                       0
(PID.TID 0000.0001)     ;
(PID.TID 0000.0001) useRealFreshWaterFlux =   /* Real Fresh Water Flux on/off flag*/
(PID.TID 0000.0001)                   T
(PID.TID 0000.0001)     ;
(PID.TID 0000.0001) convertFW2Salt = /* convert F.W. Flux to Salt Flux (-1=use local S)(ppt)*/
(PID.TID 0000.0001)                -1.000000000000000E+00
(PID.TID 0000.0001)     ;
(PID.TID 0000.0001) use3Dsolver = /* use 3-D pressure solver on/off flag */
(PID.TID 0000.0001)                   F
(PID.TID 0000.0001)     ;
(PID.TID 0000.0001) nonHydrostatic =  /* Non-Hydrostatic on/off flag */
(PID.TID 0000.0001)                   F
(PID.TID 0000.0001)     ;
(PID.TID 0000.0001) nh_Am2 = /* Non-Hydrostatic terms scaling factor */
(PID.TID 0000.0001)                 1.000000000000000E+00
(PID.TID 0000.0001)     ;
(PID.TID 0000.0001) quasiHydrostatic = /* Quasi-Hydrostatic on/off flag */
(PID.TID 0000.0001)                   F
(PID.TID 0000.0001)     ;
(PID.TID 0000.0001) momStepping =  /* Momentum equation on/off flag */
(PID.TID 0000.0001)                   T
(PID.TID 0000.0001)     ;
(PID.TID 0000.0001) vectorInvariantMomentum= /* Vector-Invariant Momentum on/off */
(PID.TID 0000.0001)                   F
(PID.TID 0000.0001)     ;
(PID.TID 0000.0001) momAdvection =  /* Momentum advection on/off flag */
(PID.TID 0000.0001)                   T
(PID.TID 0000.0001)     ;
(PID.TID 0000.0001) momViscosity =  /* Momentum viscosity on/off flag */
(PID.TID 0000.0001)                   T
(PID.TID 0000.0001)     ;
(PID.TID 0000.0001) momImplVertAdv =/* Momentum implicit vert. advection on/off*/
(PID.TID 0000.0001)                   F
(PID.TID 0000.0001)     ;
(PID.TID 0000.0001) implicitViscosity = /* Implicit viscosity on/off flag */
(PID.TID 0000.0001)                   F
(PID.TID 0000.0001)     ;
(PID.TID 0000.0001) metricTerms =  /* metric-Terms on/off flag */
(PID.TID 0000.0001)                   T
(PID.TID 0000.0001)     ;
(PID.TID 0000.0001) useNHMTerms = /* Non-Hydrostatic Metric-Terms on/off */
(PID.TID 0000.0001)                   F
(PID.TID 0000.0001)     ;
(PID.TID 0000.0001) useConstantF =  /* use Constant f0 Coriolis flag */
(PID.TID 0000.0001)                   F
(PID.TID 0000.0001)     ;
(PID.TID 0000.0001) useBetaPlaneF = /* use Beta-Plane Coriolis flag */
(PID.TID 0000.0001)                   F
(PID.TID 0000.0001)     ;
(PID.TID 0000.0001) useSphereF  =   /* use Spherical Coriolis flag */
(PID.TID 0000.0001)                   T
(PID.TID 0000.0001)     ;
(PID.TID 0000.0001) use3dCoriolis = /* 3-D Coriolis on/off flag */
(PID.TID 0000.0001)                   F
(PID.TID 0000.0001)     ;
(PID.TID 0000.0001) useCoriolis =  /* Coriolis on/off flag */
(PID.TID 0000.0001)                   T
(PID.TID 0000.0001)     ;
(PID.TID 0000.0001) useCDscheme =  /* CD scheme on/off flag */
(PID.TID 0000.0001)                   T
(PID.TID 0000.0001)     ;
(PID.TID 0000.0001) useJamartWetPoints= /* Coriolis WetPoints method flag */
(PID.TID 0000.0001)                   F
(PID.TID 0000.0001)     ;
(PID.TID 0000.0001) useJamartMomAdv= /* V.I. Non-linear terms Jamart flag */
(PID.TID 0000.0001)                   F
(PID.TID 0000.0001)     ;
(PID.TID 0000.0001) SadournyCoriolis= /* Sadourny Coriolis discr. flag */
(PID.TID 0000.0001)                   F
(PID.TID 0000.0001)     ;
(PID.TID 0000.0001) upwindVorticity= /* Upwind bias vorticity flag */
(PID.TID 0000.0001)                   F
(PID.TID 0000.0001)     ;
(PID.TID 0000.0001) useAbsVorticity= /* Work with f+zeta in Coriolis */
(PID.TID 0000.0001)                   F
(PID.TID 0000.0001)     ;
(PID.TID 0000.0001) highOrderVorticity= /* High order interp. of vort. flag */
(PID.TID 0000.0001)                   F
(PID.TID 0000.0001)     ;
(PID.TID 0000.0001) upwindShear= /* Upwind vertical Shear advection flag */
(PID.TID 0000.0001)                   F
(PID.TID 0000.0001)     ;
(PID.TID 0000.0001) selectKEscheme= /* Kinetic Energy scheme selector */
(PID.TID 0000.0001)                       0
(PID.TID 0000.0001)     ;
(PID.TID 0000.0001) momForcing =  /* Momentum forcing on/off flag */
(PID.TID 0000.0001)                   T
(PID.TID 0000.0001)     ;
(PID.TID 0000.0001) momPressureForcing =  /* Momentum pressure term on/off flag */
(PID.TID 0000.0001)                   T
(PID.TID 0000.0001)     ;
(PID.TID 0000.0001) implicitIntGravWave= /* Implicit Internal Gravity Wave flag */
(PID.TID 0000.0001)                   F
(PID.TID 0000.0001)     ;
(PID.TID 0000.0001) staggerTimeStep =   /* Stagger time stepping on/off flag */
(PID.TID 0000.0001)                   F
(PID.TID 0000.0001)     ;
(PID.TID 0000.0001) multiDimAdvection =   /* enable/disable Multi-Dim Advection */
(PID.TID 0000.0001)                   T
(PID.TID 0000.0001)     ;
(PID.TID 0000.0001) useMultiDimAdvec =   /* Multi-Dim Advection is/is-not used */
(PID.TID 0000.0001)                   T
(PID.TID 0000.0001)     ;
(PID.TID 0000.0001) implicitDiffusion =/* Implicit Diffusion on/off flag */
(PID.TID 0000.0001)                   T
(PID.TID 0000.0001)     ;
(PID.TID 0000.0001) tempStepping =  /* Temperature equation on/off flag */
(PID.TID 0000.0001)                   T
(PID.TID 0000.0001)     ;
(PID.TID 0000.0001) tempAdvection=  /* Temperature advection on/off flag */
(PID.TID 0000.0001)                   T
(PID.TID 0000.0001)     ;
(PID.TID 0000.0001) tempImplVertAdv =/* Temp. implicit vert. advection on/off */
(PID.TID 0000.0001)                   F
(PID.TID 0000.0001)     ;
(PID.TID 0000.0001) tempForcing  =  /* Temperature forcing on/off flag */
(PID.TID 0000.0001)                   T
(PID.TID 0000.0001)     ;
(PID.TID 0000.0001) saltStepping =  /* Salinity equation on/off flag */
(PID.TID 0000.0001)                   T
(PID.TID 0000.0001)     ;
(PID.TID 0000.0001) saltAdvection=  /* Salinity advection on/off flag */
(PID.TID 0000.0001)                   T
(PID.TID 0000.0001)     ;
(PID.TID 0000.0001) saltImplVertAdv =/* Sali. implicit vert. advection on/off */
(PID.TID 0000.0001)                   F
(PID.TID 0000.0001)     ;
(PID.TID 0000.0001) saltForcing  =  /* Salinity forcing on/off flag */
(PID.TID 0000.0001)                   T
(PID.TID 0000.0001)     ;
(PID.TID 0000.0001)  readBinaryPrec = /* Precision used for reading binary files */
(PID.TID 0000.0001)                      32
(PID.TID 0000.0001)     ;
(PID.TID 0000.0001) writeBinaryPrec = /* Precision used for writing binary files */
(PID.TID 0000.0001)                      32
(PID.TID 0000.0001)     ;
(PID.TID 0000.0001)  globalFiles = /* write "global" (=not per tile) files */
(PID.TID 0000.0001)                   F
(PID.TID 0000.0001)     ;
(PID.TID 0000.0001)  useSingleCpuIO = /* only master MPI process does I/O */
(PID.TID 0000.0001)                   F
(PID.TID 0000.0001)     ;
(PID.TID 0000.0001)  debugMode  =  /* Debug Mode on/off flag */
(PID.TID 0000.0001)                   F
(PID.TID 0000.0001)     ;
(PID.TID 0000.0001)    debLevA  =  /* 1rst level of debugging */
(PID.TID 0000.0001)                       1
(PID.TID 0000.0001)     ;
(PID.TID 0000.0001)    debLevB  =  /* 2nd  level of debugging */
(PID.TID 0000.0001)                       2
(PID.TID 0000.0001)     ;
(PID.TID 0000.0001)  debugLevel =  /* select debugging level */
(PID.TID 0000.0001)                       1
(PID.TID 0000.0001)     ;
(PID.TID 0000.0001) //
(PID.TID 0000.0001) // Elliptic solver(s) paramters ( PARM02 in namelist )
(PID.TID 0000.0001) //
(PID.TID 0000.0001) cg2dMaxIters =   /* Upper limit on 2d con. grad iterations  */
(PID.TID 0000.0001)                     500
(PID.TID 0000.0001)     ;
(PID.TID 0000.0001) cg2dChkResFreq =   /* 2d con. grad convergence test frequency */
(PID.TID 0000.0001)                       1
(PID.TID 0000.0001)     ;
(PID.TID 0000.0001) cg2dTargetResidual =   /* 2d con. grad target residual  */
(PID.TID 0000.0001)                 1.000000000000000E-13
(PID.TID 0000.0001)     ;
(PID.TID 0000.0001) cg2dTargetResWunit =   /* CG2d target residual [W units] */
(PID.TID 0000.0001)                -1.000000000000000E+00
(PID.TID 0000.0001)     ;
(PID.TID 0000.0001) cg2dPreCondFreq =   /* Freq. for updating cg2d preconditioner */
(PID.TID 0000.0001)                       1
(PID.TID 0000.0001)     ;
(PID.TID 0000.0001) //
(PID.TID 0000.0001) // Time stepping paramters ( PARM03 in namelist )
(PID.TID 0000.0001) //
(PID.TID 0000.0001) nIter0 =   /* Run starting timestep number  */
(PID.TID 0000.0001)                       0
(PID.TID 0000.0001)     ;
(PID.TID 0000.0001) nTimeSteps =   /* Number of timesteps */
(PID.TID 0000.0001)                      20
(PID.TID 0000.0001)     ;
(PID.TID 0000.0001) deltaTmom =   /* Momentum equation timestep ( s ) */
(PID.TID 0000.0001)                 1.800000000000000E+03
(PID.TID 0000.0001)     ;
(PID.TID 0000.0001) deltaTfreesurf =   /* FreeSurface equation timestep ( s ) */
(PID.TID 0000.0001)                 8.640000000000000E+04
(PID.TID 0000.0001)     ;
(PID.TID 0000.0001) dTtracerLev =   /* Tracer equation timestep ( s ) */
(PID.TID 0000.0001)    15 @  8.640000000000000E+04              /* K =  1: 15 */
(PID.TID 0000.0001)     ;
(PID.TID 0000.0001) deltaTClock  =   /* Model clock timestep ( s ) */
(PID.TID 0000.0001)                 8.640000000000000E+04
(PID.TID 0000.0001)     ;
(PID.TID 0000.0001) cAdjFreq =   /* Convective adjustment interval ( s ) */
(PID.TID 0000.0001)                 0.000000000000000E+00
(PID.TID 0000.0001)     ;
(PID.TID 0000.0001) momForcingOutAB = /* =1: take Momentum Forcing out of Adams-Bash. stepping */
(PID.TID 0000.0001)                       0
(PID.TID 0000.0001)     ;
(PID.TID 0000.0001) tracForcingOutAB = /* =1: take T,S,pTr Forcing out of Adams-Bash. stepping */
(PID.TID 0000.0001)                       0
(PID.TID 0000.0001)     ;
(PID.TID 0000.0001) momDissip_In_AB = /* put Dissipation Tendency in Adams-Bash. stepping */
(PID.TID 0000.0001)                   T
(PID.TID 0000.0001)     ;
(PID.TID 0000.0001) doAB_onGtGs = /* apply AB on Tendencies (rather than on T,S)*/
(PID.TID 0000.0001)                   T
(PID.TID 0000.0001)     ;
(PID.TID 0000.0001) abEps =   /* Adams-Bashforth-2 stabilizing weight */
(PID.TID 0000.0001)                 1.000000000000000E-01
(PID.TID 0000.0001)     ;
(PID.TID 0000.0001) tauCD =   /* CD coupling time-scale ( s ) */
(PID.TID 0000.0001)                 3.214280000000000E+05
(PID.TID 0000.0001)     ;
(PID.TID 0000.0001) rCD =   /* Normalised CD coupling parameter */
(PID.TID 0000.0001)                 9.943999900444267E-01
(PID.TID 0000.0001)     ;
(PID.TID 0000.0001) baseTime =   /* Model base time ( s ). */
(PID.TID 0000.0001)                 0.000000000000000E+00
(PID.TID 0000.0001)     ;
(PID.TID 0000.0001) startTime =   /* Run start time ( s ). */
(PID.TID 0000.0001)                 0.000000000000000E+00
(PID.TID 0000.0001)     ;
(PID.TID 0000.0001) endTime =   /* Integration ending time ( s ). */
(PID.TID 0000.0001)                 1.728000000000000E+06
(PID.TID 0000.0001)     ;
(PID.TID 0000.0001) pChkPtFreq =   /* Permanent restart/checkpoint file interval ( s ). */
(PID.TID 0000.0001)                 1.728000000000000E+06
(PID.TID 0000.0001)     ;
(PID.TID 0000.0001) chkPtFreq =   /* Rolling restart/checkpoint file interval ( s ). */
(PID.TID 0000.0001)                 0.000000000000000E+00
(PID.TID 0000.0001)     ;
(PID.TID 0000.0001) pickup_write_mdsio =   /* Model IO flag. */
(PID.TID 0000.0001)                   T
(PID.TID 0000.0001)     ;
(PID.TID 0000.0001) pickup_read_mdsio =   /* Model IO flag. */
(PID.TID 0000.0001)                   T
(PID.TID 0000.0001)     ;
(PID.TID 0000.0001) pickup_write_mnc =   /* Model IO flag. */
(PID.TID 0000.0001)                   F
(PID.TID 0000.0001)     ;
(PID.TID 0000.0001) pickup_read_mnc =   /* Model IO flag. */
(PID.TID 0000.0001)                   F
(PID.TID 0000.0001)     ;
(PID.TID 0000.0001) pickup_write_immed =   /* Model IO flag. */
(PID.TID 0000.0001)                   F
(PID.TID 0000.0001)     ;
(PID.TID 0000.0001) dumpFreq =   /* Model state write out interval ( s ). */
(PID.TID 0000.0001)                 8.640000000000000E+05
(PID.TID 0000.0001)     ;
(PID.TID 0000.0001) dumpInitAndLast= /* write out Initial & Last iter. model state */
(PID.TID 0000.0001)                   T
(PID.TID 0000.0001)     ;
(PID.TID 0000.0001) snapshot_mdsio =   /* Model IO flag. */
(PID.TID 0000.0001)                   T
(PID.TID 0000.0001)     ;
(PID.TID 0000.0001) snapshot_mnc =   /* Model IO flag. */
(PID.TID 0000.0001)                   F
(PID.TID 0000.0001)     ;
(PID.TID 0000.0001) monitorFreq =   /* Monitor output interval ( s ). */
(PID.TID 0000.0001)                 1.000000000000000E+00
(PID.TID 0000.0001)     ;
(PID.TID 0000.0001) monitor_stdio =   /* Model IO flag. */
(PID.TID 0000.0001)                   T
(PID.TID 0000.0001)     ;
(PID.TID 0000.0001) monitor_mnc =   /* Model IO flag. */
(PID.TID 0000.0001)                   F
(PID.TID 0000.0001)     ;
(PID.TID 0000.0001) externForcingPeriod =   /* forcing period (s) */
(PID.TID 0000.0001)                 2.592000000000000E+06
(PID.TID 0000.0001)     ;
(PID.TID 0000.0001) externForcingCycle =   /* period of the cyle (s). */
(PID.TID 0000.0001)                 3.110400000000000E+07
(PID.TID 0000.0001)     ;
(PID.TID 0000.0001) tauThetaClimRelax =   /* relaxation time scale (s) */
(PID.TID 0000.0001)                 5.184000000000000E+06
(PID.TID 0000.0001)     ;
(PID.TID 0000.0001) tauSaltClimRelax =   /* relaxation time scale (s) */
(PID.TID 0000.0001)                 1.555200000000000E+07
(PID.TID 0000.0001)     ;
(PID.TID 0000.0001) latBandClimRelax =   /* max. Lat. where relaxation */
(PID.TID 0000.0001)                 1.800000000000000E+02
(PID.TID 0000.0001)     ;
(PID.TID 0000.0001) //
(PID.TID 0000.0001) // Gridding paramters ( PARM04 in namelist )
(PID.TID 0000.0001) //
(PID.TID 0000.0001) usingCartesianGrid = /* Cartesian coordinates flag ( True/False ) */
(PID.TID 0000.0001)                   F
(PID.TID 0000.0001)     ;
(PID.TID 0000.0001) usingCylindricalGrid = /* Cylindrical coordinates flag ( True/False ) */
(PID.TID 0000.0001)                   F
(PID.TID 0000.0001)     ;
(PID.TID 0000.0001) usingSphericalPolarGrid = /* Spherical coordinates flag ( True/False ) */
(PID.TID 0000.0001)                   T
(PID.TID 0000.0001)     ;
(PID.TID 0000.0001) usingCurvilinearGrid = /* Curvilinear coordinates flag ( True/False ) */
(PID.TID 0000.0001)                   F
(PID.TID 0000.0001)     ;
(PID.TID 0000.0001) Ro_SeaLevel = /* r(1) ( units of r ) */
(PID.TID 0000.0001)                 0.000000000000000E+00
(PID.TID 0000.0001)     ;
(PID.TID 0000.0001) rkSign =   /* index orientation relative to vertical coordinate */
(PID.TID 0000.0001)                -1.000000000000000E+00
(PID.TID 0000.0001)     ;
(PID.TID 0000.0001) gravitySign = /* gravity orientation relative to vertical coordinate */
(PID.TID 0000.0001)                -1.000000000000000E+00
(PID.TID 0000.0001)     ;
(PID.TID 0000.0001) horiVertRatio =   /* Ratio on units : Horiz - Vertical */
(PID.TID 0000.0001)                 1.000000000000000E+00
(PID.TID 0000.0001)     ;
(PID.TID 0000.0001) drC =   /* C spacing ( units of r ) */
(PID.TID 0000.0001)                 2.500000000000000E+01,      /* K =  1 */
(PID.TID 0000.0001)                 6.000000000000000E+01,      /* K =  2 */
(PID.TID 0000.0001)                 8.500000000000000E+01,      /* K =  3 */
(PID.TID 0000.0001)                 1.200000000000000E+02,      /* K =  4 */
(PID.TID 0000.0001)                 1.650000000000000E+02,      /* K =  5 */
(PID.TID 0000.0001)                 2.150000000000000E+02,      /* K =  6 */
(PID.TID 0000.0001)                 2.650000000000000E+02,      /* K =  7 */
(PID.TID 0000.0001)                 3.150000000000000E+02,      /* K =  8 */
(PID.TID 0000.0001)                 3.650000000000000E+02,      /* K =  9 */
(PID.TID 0000.0001)                 4.150000000000000E+02,      /* K = 10 */
(PID.TID 0000.0001)                 4.650000000000000E+02,      /* K = 11 */
(PID.TID 0000.0001)                 5.150000000000000E+02,      /* K = 12 */
(PID.TID 0000.0001)                 5.650000000000000E+02,      /* K = 13 */
(PID.TID 0000.0001)                 6.150000000000000E+02,      /* K = 14 */
(PID.TID 0000.0001)                 6.650000000000000E+02       /* K = 15 */
(PID.TID 0000.0001)     ;
(PID.TID 0000.0001) drF =   /* W spacing ( units of r ) */
(PID.TID 0000.0001)                 5.000000000000000E+01,      /* K =  1 */
(PID.TID 0000.0001)                 7.000000000000000E+01,      /* K =  2 */
(PID.TID 0000.0001)                 1.000000000000000E+02,      /* K =  3 */
(PID.TID 0000.0001)                 1.400000000000000E+02,      /* K =  4 */
(PID.TID 0000.0001)                 1.900000000000000E+02,      /* K =  5 */
(PID.TID 0000.0001)                 2.400000000000000E+02,      /* K =  6 */
(PID.TID 0000.0001)                 2.900000000000000E+02,      /* K =  7 */
(PID.TID 0000.0001)                 3.400000000000000E+02,      /* K =  8 */
(PID.TID 0000.0001)                 3.900000000000000E+02,      /* K =  9 */
(PID.TID 0000.0001)                 4.400000000000000E+02,      /* K = 10 */
(PID.TID 0000.0001)                 4.900000000000000E+02,      /* K = 11 */
(PID.TID 0000.0001)                 5.400000000000000E+02,      /* K = 12 */
(PID.TID 0000.0001)                 5.900000000000000E+02,      /* K = 13 */
(PID.TID 0000.0001)                 6.400000000000000E+02,      /* K = 14 */
(PID.TID 0000.0001)                 6.900000000000000E+02       /* K = 15 */
(PID.TID 0000.0001)     ;
(PID.TID 0000.0001) delX =   /* U spacing ( m - cartesian, degrees - spherical ) */
(PID.TID 0000.0001)    90 @  4.000000000000000E+00              /* I =  1: 90 */
(PID.TID 0000.0001)     ;
(PID.TID 0000.0001) delY =   /* V spacing ( m - cartesian, degrees - spherical ) */
(PID.TID 0000.0001)    40 @  4.000000000000000E+00              /* J =  1: 40 */
(PID.TID 0000.0001)     ;
(PID.TID 0000.0001) phiMin =    /* South edge (ignored - cartesian, degrees - spherical ) */
(PID.TID 0000.0001)                -8.000000000000000E+01
(PID.TID 0000.0001)     ;
(PID.TID 0000.0001) thetaMin =    /* West edge ( ignored - cartesian, degrees - spherical ) */
(PID.TID 0000.0001)                 0.000000000000000E+00
(PID.TID 0000.0001)     ;
(PID.TID 0000.0001) rSphere =  /* Radius ( ignored - cartesian, m - spherical ) */
(PID.TID 0000.0001)                 6.370000000000000E+06
(PID.TID 0000.0001)     ;
(PID.TID 0000.0001) deepAtmosphere = /* Deep/Shallow Atmosphere flag (True/False) */
(PID.TID 0000.0001)                   F
(PID.TID 0000.0001)     ;
(PID.TID 0000.0001) xcoord =   /* P-point X coord ( m - cartesian, degrees - spherical ) */
(PID.TID 0000.0001)                 2.000000000000000E+00,      /* I =  1 */
(PID.TID 0000.0001)                 6.000000000000000E+00,      /* I =  2 */
(PID.TID 0000.0001)                 1.000000000000000E+01,      /* I =  3 */
(PID.TID 0000.0001)                 1.400000000000000E+01,      /* I =  4 */
(PID.TID 0000.0001)                 1.800000000000000E+01,      /* I =  5 */
(PID.TID 0000.0001)                 2.200000000000000E+01,      /* I =  6 */
(PID.TID 0000.0001)                 2.600000000000000E+01,      /* I =  7 */
(PID.TID 0000.0001)                 3.000000000000000E+01,      /* I =  8 */
(PID.TID 0000.0001)                 3.400000000000000E+01,      /* I =  9 */
(PID.TID 0000.0001)                 3.800000000000000E+01,      /* I = 10 */
(PID.TID 0000.0001)                 4.200000000000000E+01,      /* I = 11 */
(PID.TID 0000.0001)                 4.600000000000000E+01,      /* I = 12 */
(PID.TID 0000.0001)                 5.000000000000000E+01,      /* I = 13 */
(PID.TID 0000.0001)                 5.400000000000000E+01,      /* I = 14 */
(PID.TID 0000.0001)                 5.800000000000000E+01,      /* I = 15 */
(PID.TID 0000.0001)                 6.200000000000000E+01,      /* I = 16 */
(PID.TID 0000.0001)                 6.600000000000000E+01,      /* I = 17 */
(PID.TID 0000.0001)                 7.000000000000000E+01,      /* I = 18 */
(PID.TID 0000.0001)                 7.400000000000000E+01,      /* I = 19 */
(PID.TID 0000.0001)                 7.800000000000000E+01,      /* I = 20 */
(PID.TID 0000.0001)                 8.200000000000000E+01,      /* I = 21 */
(PID.TID 0000.0001)                 8.600000000000000E+01,      /* I = 22 */
(PID.TID 0000.0001)                 9.000000000000000E+01,      /* I = 23 */
(PID.TID 0000.0001)                 9.400000000000000E+01,      /* I = 24 */
(PID.TID 0000.0001)                 9.800000000000000E+01,      /* I = 25 */
(PID.TID 0000.0001)                 1.020000000000000E+02,      /* I = 26 */
(PID.TID 0000.0001)                 1.060000000000000E+02,      /* I = 27 */
(PID.TID 0000.0001)                 1.100000000000000E+02,      /* I = 28 */
(PID.TID 0000.0001)                 1.140000000000000E+02,      /* I = 29 */
(PID.TID 0000.0001)                 1.180000000000000E+02,      /* I = 30 */
(PID.TID 0000.0001)                 1.220000000000000E+02,      /* I = 31 */
(PID.TID 0000.0001)                 1.260000000000000E+02,      /* I = 32 */
(PID.TID 0000.0001)                 1.300000000000000E+02,      /* I = 33 */
(PID.TID 0000.0001)                 1.340000000000000E+02,      /* I = 34 */
(PID.TID 0000.0001)                 1.380000000000000E+02,      /* I = 35 */
(PID.TID 0000.0001)                 1.420000000000000E+02,      /* I = 36 */
(PID.TID 0000.0001)                 1.460000000000000E+02,      /* I = 37 */
(PID.TID 0000.0001)                 1.500000000000000E+02,      /* I = 38 */
(PID.TID 0000.0001)                 1.540000000000000E+02,      /* I = 39 */
(PID.TID 0000.0001)                 1.580000000000000E+02,      /* I = 40 */
(PID.TID 0000.0001)                 1.620000000000000E+02,      /* I = 41 */
(PID.TID 0000.0001)                 1.660000000000000E+02,      /* I = 42 */
(PID.TID 0000.0001)                 1.700000000000000E+02,      /* I = 43 */
(PID.TID 0000.0001)                 1.740000000000000E+02,      /* I = 44 */
(PID.TID 0000.0001)                 1.780000000000000E+02,      /* I = 45 */
(PID.TID 0000.0001)                 1.820000000000000E+02,      /* I = 46 */
(PID.TID 0000.0001)                 1.860000000000000E+02,      /* I = 47 */
(PID.TID 0000.0001)                 1.900000000000000E+02,      /* I = 48 */
(PID.TID 0000.0001)                 1.940000000000000E+02,      /* I = 49 */
(PID.TID 0000.0001)                 1.980000000000000E+02,      /* I = 50 */
(PID.TID 0000.0001)                 2.020000000000000E+02,      /* I = 51 */
(PID.TID 0000.0001)                 2.060000000000000E+02,      /* I = 52 */
(PID.TID 0000.0001)                 2.100000000000000E+02,      /* I = 53 */
(PID.TID 0000.0001)                 2.140000000000000E+02,      /* I = 54 */
(PID.TID 0000.0001)                 2.180000000000000E+02,      /* I = 55 */
(PID.TID 0000.0001)                 2.220000000000000E+02,      /* I = 56 */
(PID.TID 0000.0001)                 2.260000000000000E+02,      /* I = 57 */
(PID.TID 0000.0001)                 2.300000000000000E+02,      /* I = 58 */
(PID.TID 0000.0001)                 2.340000000000000E+02,      /* I = 59 */
(PID.TID 0000.0001)                 2.380000000000000E+02,      /* I = 60 */
(PID.TID 0000.0001)                 2.420000000000000E+02,      /* I = 61 */
(PID.TID 0000.0001)                 2.460000000000000E+02,      /* I = 62 */
(PID.TID 0000.0001)                 2.500000000000000E+02,      /* I = 63 */
(PID.TID 0000.0001)                 2.540000000000000E+02,      /* I = 64 */
(PID.TID 0000.0001)                 2.580000000000000E+02,      /* I = 65 */
(PID.TID 0000.0001)                 2.620000000000000E+02,      /* I = 66 */
(PID.TID 0000.0001)                 2.660000000000000E+02,      /* I = 67 */
(PID.TID 0000.0001)                 2.700000000000000E+02,      /* I = 68 */
(PID.TID 0000.0001)                 2.740000000000000E+02,      /* I = 69 */
(PID.TID 0000.0001)                 2.780000000000000E+02,      /* I = 70 */
(PID.TID 0000.0001)                 2.820000000000000E+02,      /* I = 71 */
(PID.TID 0000.0001)                 2.860000000000000E+02,      /* I = 72 */
(PID.TID 0000.0001)                 2.900000000000000E+02,      /* I = 73 */
(PID.TID 0000.0001)                 2.940000000000000E+02,      /* I = 74 */
(PID.TID 0000.0001)                 2.980000000000000E+02,      /* I = 75 */
(PID.TID 0000.0001)                 3.020000000000000E+02,      /* I = 76 */
(PID.TID 0000.0001)                 3.060000000000000E+02,      /* I = 77 */
(PID.TID 0000.0001)                 3.100000000000000E+02,      /* I = 78 */
(PID.TID 0000.0001)                 3.140000000000000E+02,      /* I = 79 */
(PID.TID 0000.0001)                 3.180000000000000E+02,      /* I = 80 */
(PID.TID 0000.0001)                 3.220000000000000E+02,      /* I = 81 */
(PID.TID 0000.0001)                 3.260000000000000E+02,      /* I = 82 */
(PID.TID 0000.0001)                 3.300000000000000E+02,      /* I = 83 */
(PID.TID 0000.0001)                 3.340000000000000E+02,      /* I = 84 */
(PID.TID 0000.0001)                 3.380000000000000E+02,      /* I = 85 */
(PID.TID 0000.0001)                 3.420000000000000E+02,      /* I = 86 */
(PID.TID 0000.0001)                 3.460000000000000E+02,      /* I = 87 */
(PID.TID 0000.0001)                 3.500000000000000E+02,      /* I = 88 */
(PID.TID 0000.0001)                 3.540000000000000E+02,      /* I = 89 */
(PID.TID 0000.0001)                 3.580000000000000E+02       /* I = 90 */
(PID.TID 0000.0001)     ;
(PID.TID 0000.0001) ycoord =   /* P-point Y coord ( m - cartesian, degrees - spherical ) */
(PID.TID 0000.0001)                -7.800000000000000E+01,      /* J =  1 */
(PID.TID 0000.0001)                -7.400000000000000E+01,      /* J =  2 */
(PID.TID 0000.0001)                -7.000000000000000E+01,      /* J =  3 */
(PID.TID 0000.0001)                -6.600000000000000E+01,      /* J =  4 */
(PID.TID 0000.0001)                -6.200000000000000E+01,      /* J =  5 */
(PID.TID 0000.0001)                -5.800000000000000E+01,      /* J =  6 */
(PID.TID 0000.0001)                -5.400000000000000E+01,      /* J =  7 */
(PID.TID 0000.0001)                -5.000000000000000E+01,      /* J =  8 */
(PID.TID 0000.0001)                -4.600000000000000E+01,      /* J =  9 */
(PID.TID 0000.0001)                -4.200000000000000E+01,      /* J = 10 */
(PID.TID 0000.0001)                -3.800000000000000E+01,      /* J = 11 */
(PID.TID 0000.0001)                -3.400000000000000E+01,      /* J = 12 */
(PID.TID 0000.0001)                -3.000000000000000E+01,      /* J = 13 */
(PID.TID 0000.0001)                -2.600000000000000E+01,      /* J = 14 */
(PID.TID 0000.0001)                -2.200000000000000E+01,      /* J = 15 */
(PID.TID 0000.0001)                -1.800000000000000E+01,      /* J = 16 */
(PID.TID 0000.0001)                -1.400000000000000E+01,      /* J = 17 */
(PID.TID 0000.0001)                -1.000000000000000E+01,      /* J = 18 */
(PID.TID 0000.0001)                -6.000000000000000E+00,      /* J = 19 */
(PID.TID 0000.0001)                -2.000000000000000E+00,      /* J = 20 */
(PID.TID 0000.0001)                 2.000000000000000E+00,      /* J = 21 */
(PID.TID 0000.0001)                 6.000000000000000E+00,      /* J = 22 */
(PID.TID 0000.0001)                 1.000000000000000E+01,      /* J = 23 */
(PID.TID 0000.0001)                 1.400000000000000E+01,      /* J = 24 */
(PID.TID 0000.0001)                 1.800000000000000E+01,      /* J = 25 */
(PID.TID 0000.0001)                 2.200000000000000E+01,      /* J = 26 */
(PID.TID 0000.0001)                 2.600000000000000E+01,      /* J = 27 */
(PID.TID 0000.0001)                 3.000000000000000E+01,      /* J = 28 */
(PID.TID 0000.0001)                 3.400000000000000E+01,      /* J = 29 */
(PID.TID 0000.0001)                 3.800000000000000E+01,      /* J = 30 */
(PID.TID 0000.0001)                 4.200000000000000E+01,      /* J = 31 */
(PID.TID 0000.0001)                 4.600000000000000E+01,      /* J = 32 */
(PID.TID 0000.0001)                 5.000000000000000E+01,      /* J = 33 */
(PID.TID 0000.0001)                 5.400000000000000E+01,      /* J = 34 */
(PID.TID 0000.0001)                 5.800000000000000E+01,      /* J = 35 */
(PID.TID 0000.0001)                 6.200000000000000E+01,      /* J = 36 */
(PID.TID 0000.0001)                 6.600000000000000E+01,      /* J = 37 */
(PID.TID 0000.0001)                 7.000000000000000E+01,      /* J = 38 */
(PID.TID 0000.0001)                 7.400000000000000E+01,      /* J = 39 */
(PID.TID 0000.0001)                 7.800000000000000E+01       /* J = 40 */
(PID.TID 0000.0001)     ;
(PID.TID 0000.0001) rcoord =   /* P-point R coordinate (  units of r ) */
(PID.TID 0000.0001)                -2.500000000000000E+01,      /* K =  1 */
(PID.TID 0000.0001)                -8.500000000000000E+01,      /* K =  2 */
(PID.TID 0000.0001)                -1.700000000000000E+02,      /* K =  3 */
(PID.TID 0000.0001)                -2.900000000000000E+02,      /* K =  4 */
(PID.TID 0000.0001)                -4.550000000000000E+02,      /* K =  5 */
(PID.TID 0000.0001)                -6.700000000000000E+02,      /* K =  6 */
(PID.TID 0000.0001)                -9.350000000000000E+02,      /* K =  7 */
(PID.TID 0000.0001)                -1.250000000000000E+03,      /* K =  8 */
(PID.TID 0000.0001)                -1.615000000000000E+03,      /* K =  9 */
(PID.TID 0000.0001)                -2.030000000000000E+03,      /* K = 10 */
(PID.TID 0000.0001)                -2.495000000000000E+03,      /* K = 11 */
(PID.TID 0000.0001)                -3.010000000000000E+03,      /* K = 12 */
(PID.TID 0000.0001)                -3.575000000000000E+03,      /* K = 13 */
(PID.TID 0000.0001)                -4.190000000000000E+03,      /* K = 14 */
(PID.TID 0000.0001)                -4.855000000000000E+03       /* K = 15 */
(PID.TID 0000.0001)     ;
(PID.TID 0000.0001) rF =   /* W-Interf. R coordinate (  units of r ) */
(PID.TID 0000.0001)                 0.000000000000000E+00,      /* K =  1 */
(PID.TID 0000.0001)                -5.000000000000000E+01,      /* K =  2 */
(PID.TID 0000.0001)                -1.200000000000000E+02,      /* K =  3 */
(PID.TID 0000.0001)                -2.200000000000000E+02,      /* K =  4 */
(PID.TID 0000.0001)                -3.600000000000000E+02,      /* K =  5 */
(PID.TID 0000.0001)                -5.500000000000000E+02,      /* K =  6 */
(PID.TID 0000.0001)                -7.900000000000000E+02,      /* K =  7 */
(PID.TID 0000.0001)                -1.080000000000000E+03,      /* K =  8 */
(PID.TID 0000.0001)                -1.420000000000000E+03,      /* K =  9 */
(PID.TID 0000.0001)                -1.810000000000000E+03,      /* K = 10 */
(PID.TID 0000.0001)                -2.250000000000000E+03,      /* K = 11 */
(PID.TID 0000.0001)                -2.740000000000000E+03,      /* K = 12 */
(PID.TID 0000.0001)                -3.280000000000000E+03,      /* K = 13 */
(PID.TID 0000.0001)                -3.870000000000000E+03,      /* K = 14 */
(PID.TID 0000.0001)                -4.510000000000000E+03,      /* K = 15 */
(PID.TID 0000.0001)                -5.200000000000000E+03       /* K = 16 */
(PID.TID 0000.0001)     ;
(PID.TID 0000.0001) deepFacC = /* deep-model grid factor @ cell-Center (-) */
(PID.TID 0000.0001)    15 @  1.000000000000000E+00              /* K =  1: 15 */
(PID.TID 0000.0001)     ;
(PID.TID 0000.0001) deepFacF = /* deep-model grid factor @ W-Interface (-) */
(PID.TID 0000.0001)    16 @  1.000000000000000E+00              /* K =  1: 16 */
(PID.TID 0000.0001)     ;
(PID.TID 0000.0001) rVel2wUnit = /* convert units: rVel -> wSpeed (=1 if z-coord)*/
(PID.TID 0000.0001)    16 @  1.000000000000000E+00              /* K =  1: 16 */
(PID.TID 0000.0001)     ;
(PID.TID 0000.0001) wUnit2rVel = /* convert units: wSpeed -> rVel (=1 if z-coord)*/
(PID.TID 0000.0001)    16 @  1.000000000000000E+00              /* K =  1: 16 */
(PID.TID 0000.0001)     ;
(PID.TID 0000.0001) dBdrRef = /* Vertical gradient of reference boyancy [(m/s/r)^2)] */
(PID.TID 0000.0001)    15 @  0.000000000000000E+00              /* K =  1: 15 */
(PID.TID 0000.0001)     ;
(PID.TID 0000.0001) dxF =  /* dxF(:,1,:,1) ( units: m ) */
(PID.TID 0000.0001)    90 @  9.246038586187513E+04              /* I =  1: 90 */
(PID.TID 0000.0001)     ;
(PID.TID 0000.0001) dxF =  /* dxF(1,:,1,:) ( units: m ) */
(PID.TID 0000.0001)                 9.246038586187513E+04,      /* J =  1 */
(PID.TID 0000.0001)                 1.225786591246834E+05,      /* J =  2 */
(PID.TID 0000.0001)                 1.520997414818001E+05,      /* J =  3 */
(PID.TID 0000.0001)                 1.808798091874300E+05,      /* J =  4 */
(PID.TID 0000.0001)                 2.087786486446736E+05,      /* J =  5 */
(PID.TID 0000.0001)                 2.356603395120765E+05,      /* J =  6 */
(PID.TID 0000.0001)                 2.613939168938713E+05,      /* J =  7 */
(PID.TID 0000.0001)                 2.858540093877838E+05,      /* J =  8 */
(PID.TID 0000.0001)                 3.089214498819034E+05,      /* J =  9 */
(PID.TID 0000.0001)                 3.304838561248741E+05,      /* J = 10 */
(PID.TID 0000.0001)                 3.504361782409254E+05,      /* J = 11 */
(PID.TID 0000.0001)                 3.686812105223082E+05,      /* J = 12 */
(PID.TID 0000.0001)                 3.851300650057323E+05,      /* J = 13 */
(PID.TID 0000.0001)                 3.997026045255871E+05,      /* J = 14 */
(PID.TID 0000.0001)                 4.123278331341585E+05,      /* J = 15 */
(PID.TID 0000.0001)                 4.229442419867491E+05,      /* J = 16 */
(PID.TID 0000.0001)                 4.315001090065870E+05,      /* J = 17 */
(PID.TID 0000.0001)                 4.379537508695838E+05,      /* J = 18 */
(PID.TID 0000.0001)                 4.422737260813012E+05,      /* J = 19 */
(PID.TID 0000.0001)     2 @  4.444389881567502E+05,             /* J = 20: 21 */
(PID.TID 0000.0001)                 4.422737260813012E+05,      /* J = 22 */
(PID.TID 0000.0001)                 4.379537508695838E+05,      /* J = 23 */
(PID.TID 0000.0001)                 4.315001090065870E+05,      /* J = 24 */
(PID.TID 0000.0001)                 4.229442419867491E+05,      /* J = 25 */
(PID.TID 0000.0001)                 4.123278331341585E+05,      /* J = 26 */
(PID.TID 0000.0001)                 3.997026045255871E+05,      /* J = 27 */
(PID.TID 0000.0001)                 3.851300650057323E+05,      /* J = 28 */
(PID.TID 0000.0001)                 3.686812105223082E+05,      /* J = 29 */
(PID.TID 0000.0001)                 3.504361782409254E+05,      /* J = 30 */
(PID.TID 0000.0001)                 3.304838561248741E+05,      /* J = 31 */
(PID.TID 0000.0001)                 3.089214498819034E+05,      /* J = 32 */
(PID.TID 0000.0001)                 2.858540093877838E+05,      /* J = 33 */
(PID.TID 0000.0001)                 2.613939168938713E+05,      /* J = 34 */
(PID.TID 0000.0001)                 2.356603395120765E+05,      /* J = 35 */
(PID.TID 0000.0001)                 2.087786486446736E+05,      /* J = 36 */
(PID.TID 0000.0001)                 1.808798091874300E+05,      /* J = 37 */
(PID.TID 0000.0001)                 1.520997414818001E+05,      /* J = 38 */
(PID.TID 0000.0001)                 1.225786591246834E+05,      /* J = 39 */
(PID.TID 0000.0001)                 9.246038586187513E+04       /* J = 40 */
(PID.TID 0000.0001)     ;
(PID.TID 0000.0001) dyF =  /* dyF(:,1,:,1) ( units: m ) */
(PID.TID 0000.0001)    90 @  4.447098934081552E+05              /* I =  1: 90 */
(PID.TID 0000.0001)     ;
(PID.TID 0000.0001) dyF =  /* dyF(1,:,1,:) ( units: m ) */
(PID.TID 0000.0001)    40 @  4.447098934081552E+05              /* J =  1: 40 */
(PID.TID 0000.0001)     ;
(PID.TID 0000.0001) dxG =  /* dxG(:,1,:,1) ( units: m ) */
(PID.TID 0000.0001)    90 @  7.722306258078101E+04              /* I =  1: 90 */
(PID.TID 0000.0001)     ;
(PID.TID 0000.0001) dxG =  /* dxG(1,:,1,:) ( units: m ) */
(PID.TID 0000.0001)                 7.722306258078101E+04,      /* J =  1 */
(PID.TID 0000.0001)                 1.075850604052271E+05,      /* J =  2 */
(PID.TID 0000.0001)                 1.374229146297914E+05,      /* J =  3 */
(PID.TID 0000.0001)                 1.665912582279823E+05,      /* J =  4 */
(PID.TID 0000.0001)                 1.949479859617814E+05,      /* J =  5 */
(PID.TID 0000.0001)                 2.223549467040777E+05,      /* J =  6 */
(PID.TID 0000.0001)                 2.486786164970726E+05,      /* J =  7 */
(PID.TID 0000.0001)                 2.737907490675810E+05,      /* J =  8 */
(PID.TID 0000.0001)                 2.975690006299821E+05,      /* J =  9 */
(PID.TID 0000.0001)                 3.198975259328452E+05,      /* J = 10 */
(PID.TID 0000.0001)                 3.406675426453503E+05,      /* J = 11 */
(PID.TID 0000.0001)                 3.597778613338690E+05,      /* J = 12 */
(PID.TID 0000.0001)                 3.771353784467131E+05,      /* J = 13 */
(PID.TID 0000.0001)                 3.926555299052806E+05,      /* J = 14 */
(PID.TID 0000.0001)                 4.062627030917454E+05,      /* J = 15 */
(PID.TID 0000.0001)                 4.178906052261313E+05,      /* J = 16 */
(PID.TID 0000.0001)                 4.274825863380723E+05,      /* J = 17 */
(PID.TID 0000.0001)                 4.349919152597734E+05,      /* J = 18 */
(PID.TID 0000.0001)                 4.403820072955634E+05,      /* J = 19 */
(PID.TID 0000.0001)                 4.436266024588540E+05,      /* J = 20 */
(PID.TID 0000.0001)                 4.447098934081552E+05,      /* J = 21 */
(PID.TID 0000.0001)                 4.436266024588540E+05,      /* J = 22 */
(PID.TID 0000.0001)                 4.403820072955634E+05,      /* J = 23 */
(PID.TID 0000.0001)                 4.349919152597734E+05,      /* J = 24 */
(PID.TID 0000.0001)                 4.274825863380723E+05,      /* J = 25 */
(PID.TID 0000.0001)                 4.178906052261313E+05,      /* J = 26 */
(PID.TID 0000.0001)                 4.062627030917454E+05,      /* J = 27 */
(PID.TID 0000.0001)                 3.926555299052806E+05,      /* J = 28 */
(PID.TID 0000.0001)                 3.771353784467131E+05,      /* J = 29 */
(PID.TID 0000.0001)                 3.597778613338690E+05,      /* J = 30 */
(PID.TID 0000.0001)                 3.406675426453503E+05,      /* J = 31 */
(PID.TID 0000.0001)                 3.198975259328452E+05,      /* J = 32 */
(PID.TID 0000.0001)                 2.975690006299821E+05,      /* J = 33 */
(PID.TID 0000.0001)                 2.737907490675810E+05,      /* J = 34 */
(PID.TID 0000.0001)                 2.486786164970726E+05,      /* J = 35 */
(PID.TID 0000.0001)                 2.223549467040777E+05,      /* J = 36 */
(PID.TID 0000.0001)                 1.949479859617814E+05,      /* J = 37 */
(PID.TID 0000.0001)                 1.665912582279823E+05,      /* J = 38 */
(PID.TID 0000.0001)                 1.374229146297914E+05,      /* J = 39 */
(PID.TID 0000.0001)                 1.075850604052271E+05       /* J = 40 */
(PID.TID 0000.0001)     ;
(PID.TID 0000.0001) dyG =  /* dyG(:,1,:,1) ( units: m ) */
(PID.TID 0000.0001)    90 @  4.447098934081552E+05              /* I =  1: 90 */
(PID.TID 0000.0001)     ;
(PID.TID 0000.0001) dyG =  /* dyG(1,:,1,:) ( units: m ) */
(PID.TID 0000.0001)    40 @  4.447098934081552E+05              /* J =  1: 40 */
(PID.TID 0000.0001)     ;
(PID.TID 0000.0001) dxC =  /* dxC(:,1,:,1) ( units: m ) */
(PID.TID 0000.0001)    90 @  9.246038586187513E+04              /* I =  1: 90 */
(PID.TID 0000.0001)     ;
(PID.TID 0000.0001) dxC =  /* dxC(1,:,1,:) ( units: m ) */
(PID.TID 0000.0001)                 9.246038586187513E+04,      /* J =  1 */
(PID.TID 0000.0001)                 1.225786591246834E+05,      /* J =  2 */
(PID.TID 0000.0001)                 1.520997414818001E+05,      /* J =  3 */
(PID.TID 0000.0001)                 1.808798091874300E+05,      /* J =  4 */
(PID.TID 0000.0001)                 2.087786486446736E+05,      /* J =  5 */
(PID.TID 0000.0001)                 2.356603395120765E+05,      /* J =  6 */
(PID.TID 0000.0001)                 2.613939168938713E+05,      /* J =  7 */
(PID.TID 0000.0001)                 2.858540093877838E+05,      /* J =  8 */
(PID.TID 0000.0001)                 3.089214498819034E+05,      /* J =  9 */
(PID.TID 0000.0001)                 3.304838561248741E+05,      /* J = 10 */
(PID.TID 0000.0001)                 3.504361782409254E+05,      /* J = 11 */
(PID.TID 0000.0001)                 3.686812105223082E+05,      /* J = 12 */
(PID.TID 0000.0001)                 3.851300650057323E+05,      /* J = 13 */
(PID.TID 0000.0001)                 3.997026045255871E+05,      /* J = 14 */
(PID.TID 0000.0001)                 4.123278331341585E+05,      /* J = 15 */
(PID.TID 0000.0001)                 4.229442419867491E+05,      /* J = 16 */
(PID.TID 0000.0001)                 4.315001090065870E+05,      /* J = 17 */
(PID.TID 0000.0001)                 4.379537508695838E+05,      /* J = 18 */
(PID.TID 0000.0001)                 4.422737260813012E+05,      /* J = 19 */
(PID.TID 0000.0001)     2 @  4.444389881567502E+05,             /* J = 20: 21 */
(PID.TID 0000.0001)                 4.422737260813012E+05,      /* J = 22 */
(PID.TID 0000.0001)                 4.379537508695838E+05,      /* J = 23 */
(PID.TID 0000.0001)                 4.315001090065870E+05,      /* J = 24 */
(PID.TID 0000.0001)                 4.229442419867491E+05,      /* J = 25 */
(PID.TID 0000.0001)                 4.123278331341585E+05,      /* J = 26 */
(PID.TID 0000.0001)                 3.997026045255871E+05,      /* J = 27 */
(PID.TID 0000.0001)                 3.851300650057323E+05,      /* J = 28 */
(PID.TID 0000.0001)                 3.686812105223082E+05,      /* J = 29 */
(PID.TID 0000.0001)                 3.504361782409254E+05,      /* J = 30 */
(PID.TID 0000.0001)                 3.304838561248741E+05,      /* J = 31 */
(PID.TID 0000.0001)                 3.089214498819034E+05,      /* J = 32 */
(PID.TID 0000.0001)                 2.858540093877838E+05,      /* J = 33 */
(PID.TID 0000.0001)                 2.613939168938713E+05,      /* J = 34 */
(PID.TID 0000.0001)                 2.356603395120765E+05,      /* J = 35 */
(PID.TID 0000.0001)                 2.087786486446736E+05,      /* J = 36 */
(PID.TID 0000.0001)                 1.808798091874300E+05,      /* J = 37 */
(PID.TID 0000.0001)                 1.520997414818001E+05,      /* J = 38 */
(PID.TID 0000.0001)                 1.225786591246834E+05,      /* J = 39 */
(PID.TID 0000.0001)                 9.246038586187513E+04       /* J = 40 */
(PID.TID 0000.0001)     ;
(PID.TID 0000.0001) dyC =  /* dyC(:,1,:,1) ( units: m ) */
(PID.TID 0000.0001)    90 @  4.447098934081552E+05              /* I =  1: 90 */
(PID.TID 0000.0001)     ;
(PID.TID 0000.0001) dyC =  /* dyC(1,:,1,:) ( units: m ) */
(PID.TID 0000.0001)    40 @  4.447098934081552E+05              /* J =  1: 40 */
(PID.TID 0000.0001)     ;
(PID.TID 0000.0001) dxV =  /* dxV(:,1,:,1) ( units: m ) */
(PID.TID 0000.0001)    90 @  7.722306258078101E+04              /* I =  1: 90 */
(PID.TID 0000.0001)     ;
(PID.TID 0000.0001) dxV =  /* dxV(1,:,1,:) ( units: m ) */
(PID.TID 0000.0001)                 7.722306258078101E+04,      /* J =  1 */
(PID.TID 0000.0001)                 1.075850604052271E+05,      /* J =  2 */
(PID.TID 0000.0001)                 1.374229146297914E+05,      /* J =  3 */
(PID.TID 0000.0001)                 1.665912582279823E+05,      /* J =  4 */
(PID.TID 0000.0001)                 1.949479859617814E+05,      /* J =  5 */
(PID.TID 0000.0001)                 2.223549467040777E+05,      /* J =  6 */
(PID.TID 0000.0001)                 2.486786164970726E+05,      /* J =  7 */
(PID.TID 0000.0001)                 2.737907490675810E+05,      /* J =  8 */
(PID.TID 0000.0001)                 2.975690006299821E+05,      /* J =  9 */
(PID.TID 0000.0001)                 3.198975259328452E+05,      /* J = 10 */
(PID.TID 0000.0001)                 3.406675426453503E+05,      /* J = 11 */
(PID.TID 0000.0001)                 3.597778613338690E+05,      /* J = 12 */
(PID.TID 0000.0001)                 3.771353784467131E+05,      /* J = 13 */
(PID.TID 0000.0001)                 3.926555299052806E+05,      /* J = 14 */
(PID.TID 0000.0001)                 4.062627030917454E+05,      /* J = 15 */
(PID.TID 0000.0001)                 4.178906052261313E+05,      /* J = 16 */
(PID.TID 0000.0001)                 4.274825863380723E+05,      /* J = 17 */
(PID.TID 0000.0001)                 4.349919152597734E+05,      /* J = 18 */
(PID.TID 0000.0001)                 4.403820072955634E+05,      /* J = 19 */
(PID.TID 0000.0001)                 4.436266024588540E+05,      /* J = 20 */
(PID.TID 0000.0001)                 4.447098934081552E+05,      /* J = 21 */
(PID.TID 0000.0001)                 4.436266024588540E+05,      /* J = 22 */
(PID.TID 0000.0001)                 4.403820072955634E+05,      /* J = 23 */
(PID.TID 0000.0001)                 4.349919152597734E+05,      /* J = 24 */
(PID.TID 0000.0001)                 4.274825863380723E+05,      /* J = 25 */
(PID.TID 0000.0001)                 4.178906052261313E+05,      /* J = 26 */
(PID.TID 0000.0001)                 4.062627030917454E+05,      /* J = 27 */
(PID.TID 0000.0001)                 3.926555299052806E+05,      /* J = 28 */
(PID.TID 0000.0001)                 3.771353784467131E+05,      /* J = 29 */
(PID.TID 0000.0001)                 3.597778613338690E+05,      /* J = 30 */
(PID.TID 0000.0001)                 3.406675426453503E+05,      /* J = 31 */
(PID.TID 0000.0001)                 3.198975259328452E+05,      /* J = 32 */
(PID.TID 0000.0001)                 2.975690006299821E+05,      /* J = 33 */
(PID.TID 0000.0001)                 2.737907490675810E+05,      /* J = 34 */
(PID.TID 0000.0001)                 2.486786164970726E+05,      /* J = 35 */
(PID.TID 0000.0001)                 2.223549467040777E+05,      /* J = 36 */
(PID.TID 0000.0001)                 1.949479859617814E+05,      /* J = 37 */
(PID.TID 0000.0001)                 1.665912582279823E+05,      /* J = 38 */
(PID.TID 0000.0001)                 1.374229146297914E+05,      /* J = 39 */
(PID.TID 0000.0001)                 1.075850604052271E+05       /* J = 40 */
(PID.TID 0000.0001)     ;
(PID.TID 0000.0001) dyU =  /* dyU(:,1,:,1) ( units: m ) */
(PID.TID 0000.0001)    90 @  4.447098934081552E+05              /* I =  1: 90 */
(PID.TID 0000.0001)     ;
(PID.TID 0000.0001) dyU =  /* dyU(1,:,1,:) ( units: m ) */
(PID.TID 0000.0001)    40 @  4.447098934081552E+05              /* J =  1: 40 */
(PID.TID 0000.0001)     ;
(PID.TID 0000.0001) rA  =  /* rA (:,1,:,1) ( units: m^2 ) */
(PID.TID 0000.0001)    90 @  4.110969866729047E+10              /* I =  1: 90 */
(PID.TID 0000.0001)     ;
(PID.TID 0000.0001) rA  =  /* rA (1,:,1,:) ( units: m^2 ) */
(PID.TID 0000.0001)                 4.110969866729047E+10,      /* J =  1 */
(PID.TID 0000.0001)                 5.450087291636665E+10,      /* J =  2 */
(PID.TID 0000.0001)                 6.762652439100235E+10,      /* J =  3 */
(PID.TID 0000.0001)                 8.042270623659998E+10,      /* J =  4 */
(PID.TID 0000.0001)                 9.282707674147523E+10,      /* J =  5 */
(PID.TID 0000.0001)                 1.047792030594103E+11,      /* J =  6 */
(PID.TID 0000.0001)                 1.162208556324093E+11,      /* J =  7 */
(PID.TID 0000.0001)                 1.270962918792468E+11,      /* J =  8 */
(PID.TID 0000.0001)                 1.373525277677229E+11,      /* J =  9 */
(PID.TID 0000.0001)                 1.469395959475426E+11,      /* J = 10 */
(PID.TID 0000.0001)                 1.558107891862220E+11,      /* J = 11 */
(PID.TID 0000.0001)                 1.639228879220326E+11,      /* J = 12 */
(PID.TID 0000.0001)                 1.712363708253573E+11,      /* J = 13 */
(PID.TID 0000.0001)                 1.777156073426415E+11,      /* J = 14 */
(PID.TID 0000.0001)                 1.833290312848623E+11,      /* J = 15 */
(PID.TID 0000.0001)                 1.880492946148330E+11,      /* J = 16 */
(PID.TID 0000.0001)                 1.918534006840893E+11,      /* J = 17 */
(PID.TID 0000.0001)                 1.947228162702492E+11,      /* J = 18 */
(PID.TID 0000.0001)                 1.966435618690094E+11,      /* J = 19 */
(PID.TID 0000.0001)     2 @  1.976062798008856E+11,             /* J = 20: 21 */
(PID.TID 0000.0001)                 1.966435618690094E+11,      /* J = 22 */
(PID.TID 0000.0001)                 1.947228162702492E+11,      /* J = 23 */
(PID.TID 0000.0001)                 1.918534006840893E+11,      /* J = 24 */
(PID.TID 0000.0001)                 1.880492946148330E+11,      /* J = 25 */
(PID.TID 0000.0001)                 1.833290312848623E+11,      /* J = 26 */
(PID.TID 0000.0001)                 1.777156073426415E+11,      /* J = 27 */
(PID.TID 0000.0001)                 1.712363708253573E+11,      /* J = 28 */
(PID.TID 0000.0001)                 1.639228879220326E+11,      /* J = 29 */
(PID.TID 0000.0001)                 1.558107891862220E+11,      /* J = 30 */
(PID.TID 0000.0001)                 1.469395959475426E+11,      /* J = 31 */
(PID.TID 0000.0001)                 1.373525277677229E+11,      /* J = 32 */
(PID.TID 0000.0001)                 1.270962918792468E+11,      /* J = 33 */
(PID.TID 0000.0001)                 1.162208556324093E+11,      /* J = 34 */
(PID.TID 0000.0001)                 1.047792030594103E+11,      /* J = 35 */
(PID.TID 0000.0001)                 9.282707674147523E+10,      /* J = 36 */
(PID.TID 0000.0001)                 8.042270623659998E+10,      /* J = 37 */
(PID.TID 0000.0001)                 6.762652439100235E+10,      /* J = 38 */
(PID.TID 0000.0001)                 5.450087291636665E+10,      /* J = 39 */
(PID.TID 0000.0001)                 4.110969866729047E+10       /* J = 40 */
(PID.TID 0000.0001)     ;
(PID.TID 0000.0001) rAw =  /* rAw(:,1,:,1) ( units: m^2 ) */
(PID.TID 0000.0001)    90 @  4.110969866729047E+10              /* I =  1: 90 */
(PID.TID 0000.0001)     ;
(PID.TID 0000.0001) rAw =  /* rAw(1,:,1,:) ( units: m^2 ) */
(PID.TID 0000.0001)                 4.110969866729047E+10,      /* J =  1 */
(PID.TID 0000.0001)                 5.450087291636665E+10,      /* J =  2 */
(PID.TID 0000.0001)                 6.762652439100235E+10,      /* J =  3 */
(PID.TID 0000.0001)                 8.042270623659998E+10,      /* J =  4 */
(PID.TID 0000.0001)                 9.282707674147523E+10,      /* J =  5 */
(PID.TID 0000.0001)                 1.047792030594103E+11,      /* J =  6 */
(PID.TID 0000.0001)                 1.162208556324093E+11,      /* J =  7 */
(PID.TID 0000.0001)                 1.270962918792468E+11,      /* J =  8 */
(PID.TID 0000.0001)                 1.373525277677229E+11,      /* J =  9 */
(PID.TID 0000.0001)                 1.469395959475426E+11,      /* J = 10 */
(PID.TID 0000.0001)                 1.558107891862220E+11,      /* J = 11 */
(PID.TID 0000.0001)                 1.639228879220326E+11,      /* J = 12 */
(PID.TID 0000.0001)                 1.712363708253573E+11,      /* J = 13 */
(PID.TID 0000.0001)                 1.777156073426415E+11,      /* J = 14 */
(PID.TID 0000.0001)                 1.833290312848623E+11,      /* J = 15 */
(PID.TID 0000.0001)                 1.880492946148330E+11,      /* J = 16 */
(PID.TID 0000.0001)                 1.918534006840893E+11,      /* J = 17 */
(PID.TID 0000.0001)                 1.947228162702492E+11,      /* J = 18 */
(PID.TID 0000.0001)                 1.966435618690094E+11,      /* J = 19 */
(PID.TID 0000.0001)     2 @  1.976062798008856E+11,             /* J = 20: 21 */
(PID.TID 0000.0001)                 1.966435618690094E+11,      /* J = 22 */
(PID.TID 0000.0001)                 1.947228162702492E+11,      /* J = 23 */
(PID.TID 0000.0001)                 1.918534006840893E+11,      /* J = 24 */
(PID.TID 0000.0001)                 1.880492946148330E+11,      /* J = 25 */
(PID.TID 0000.0001)                 1.833290312848623E+11,      /* J = 26 */
(PID.TID 0000.0001)                 1.777156073426415E+11,      /* J = 27 */
(PID.TID 0000.0001)                 1.712363708253573E+11,      /* J = 28 */
(PID.TID 0000.0001)                 1.639228879220326E+11,      /* J = 29 */
(PID.TID 0000.0001)                 1.558107891862220E+11,      /* J = 30 */
(PID.TID 0000.0001)                 1.469395959475426E+11,      /* J = 31 */
(PID.TID 0000.0001)                 1.373525277677229E+11,      /* J = 32 */
(PID.TID 0000.0001)                 1.270962918792468E+11,      /* J = 33 */
(PID.TID 0000.0001)                 1.162208556324093E+11,      /* J = 34 */
(PID.TID 0000.0001)                 1.047792030594103E+11,      /* J = 35 */
(PID.TID 0000.0001)                 9.282707674147523E+10,      /* J = 36 */
(PID.TID 0000.0001)                 8.042270623659998E+10,      /* J = 37 */
(PID.TID 0000.0001)                 6.762652439100235E+10,      /* J = 38 */
(PID.TID 0000.0001)                 5.450087291636665E+10,      /* J = 39 */
(PID.TID 0000.0001)                 4.110969866729047E+10       /* J = 40 */
(PID.TID 0000.0001)     ;
(PID.TID 0000.0001) rAs =  /* rAs(:,1,:,1) ( units: m^2 ) */
(PID.TID 0000.0001)    90 @  3.433488626798250E+10              /* I =  1: 90 */
(PID.TID 0000.0001)     ;
(PID.TID 0000.0001) rAs =  /* rAs(1,:,1,:) ( units: m^2 ) */
(PID.TID 0000.0001)                 3.433488626798250E+10,      /* J =  1 */
(PID.TID 0000.0001)                 4.783442523123625E+10,      /* J =  2 */
(PID.TID 0000.0001)                 6.110091968306414E+10,      /* J =  3 */
(PID.TID 0000.0001)                 7.406973659603818E+10,      /* J =  4 */
(PID.TID 0000.0001)                 8.667769319778079E+10,      /* J =  5 */
(PID.TID 0000.0001)                 9.886336479107463E+10,      /* J =  6 */
(PID.TID 0000.0001)                 1.105673840088173E+11,      /* J =  7 */
(PID.TID 0000.0001)                 1.217327300458638E+11,      /* J =  8 */
(PID.TID 0000.0001)                 1.323050064586578E+11,      /* J =  9 */
(PID.TID 0000.0001)                 1.422327061792377E+11,      /* J = 10 */
(PID.TID 0000.0001)                 1.514674624524945E+11,      /* J = 11 */
(PID.TID 0000.0001)                 1.599642844741385E+11,      /* J = 12 */
(PID.TID 0000.0001)                 1.676817765813788E+11,      /* J = 13 */
(PID.TID 0000.0001)                 1.745823399284268E+11,      /* J = 14 */
(PID.TID 0000.0001)                 1.806323556642996E+11,      /* J = 15 */
(PID.TID 0000.0001)                 1.858023487204767E+11,      /* J = 16 */
(PID.TID 0000.0001)                 1.900671314104743E+11,      /* J = 17 */
(PID.TID 0000.0001)                 1.934059261417216E+11,      /* J = 18 */
(PID.TID 0000.0001)                 1.958024666419019E+11,      /* J = 19 */
(PID.TID 0000.0001)                 1.972450772065981E+11,      /* J = 20 */
(PID.TID 0000.0001)                 1.977267295821495E+11,      /* J = 21 */
(PID.TID 0000.0001)                 1.972450772065981E+11,      /* J = 22 */
(PID.TID 0000.0001)                 1.958024666419019E+11,      /* J = 23 */
(PID.TID 0000.0001)                 1.934059261417216E+11,      /* J = 24 */
(PID.TID 0000.0001)                 1.900671314104743E+11,      /* J = 25 */
(PID.TID 0000.0001)                 1.858023487204767E+11,      /* J = 26 */
(PID.TID 0000.0001)                 1.806323556642996E+11,      /* J = 27 */
(PID.TID 0000.0001)                 1.745823399284268E+11,      /* J = 28 */
(PID.TID 0000.0001)                 1.676817765813788E+11,      /* J = 29 */
(PID.TID 0000.0001)                 1.599642844741385E+11,      /* J = 30 */
(PID.TID 0000.0001)                 1.514674624524945E+11,      /* J = 31 */
(PID.TID 0000.0001)                 1.422327061792377E+11,      /* J = 32 */
(PID.TID 0000.0001)                 1.323050064586578E+11,      /* J = 33 */
(PID.TID 0000.0001)                 1.217327300458638E+11,      /* J = 34 */
(PID.TID 0000.0001)                 1.105673840088173E+11,      /* J = 35 */
(PID.TID 0000.0001)                 9.886336479107463E+10,      /* J = 36 */
(PID.TID 0000.0001)                 8.667769319778079E+10,      /* J = 37 */
(PID.TID 0000.0001)                 7.406973659603818E+10,      /* J = 38 */
(PID.TID 0000.0001)                 6.110091968306414E+10,      /* J = 39 */
(PID.TID 0000.0001)                 4.783442523123625E+10       /* J = 40 */
(PID.TID 0000.0001)     ;
(PID.TID 0000.0001) globalArea = /* Integrated horizontal Area (m^2) */
(PID.TID 0000.0001)                 3.450614146649764E+14
(PID.TID 0000.0001)     ;
(PID.TID 0000.0001) the_run_name = /* Name of this simulation */
(PID.TID 0000.0001)               'global_oce_latlon'
(PID.TID 0000.0001)     ;
(PID.TID 0000.0001) // =======================================================
(PID.TID 0000.0001) // End of Model config. summary
(PID.TID 0000.0001) // =======================================================
(PID.TID 0000.0001) 
(PID.TID 0000.0001)  MDS_READ_FIELD: opening global file: lev_t.bin
(PID.TID 0000.0001) // =======================================================
(PID.TID 0000.0001) // Field Initial Temperature at iteration          1
(PID.TID 0000.0001) // CMIN =         -1.900000000000000E+00
(PID.TID 0000.0001) // CMAX =          2.973338890075684E+01
(PID.TID 0000.0001) // CINT =          1.171606996324327E+00
(PID.TID 0000.0001) // SYMBOLS (CMIN->CMAX): -abcdefghijklmnopqrstuvwxyz+
(PID.TID 0000.0001) //                  0.0: .
(PID.TID 0000.0001) // RANGE I (Lo:Hi:Step):(   1:  90:   1)
(PID.TID 0000.0001) // RANGE J (Lo:Hi:Step):(  40:   1:  -1)
(PID.TID 0000.0001) // RANGE K (Lo:Hi:Step):(   1:   1:   1)
(PID.TID 0000.0001) // =======================================================
(PID.TID 0000.0001) K =   1
(PID.TID 0000.0001)                I=10      I=20      I=30      I=40      I=50      I=60      I=70      I=80      I=90
(PID.TID 0000.0001) |--J--|123456789|123456789|123456789|123456789|123456789|123456789|123456789|123456789|123456789|
(PID.TID 0000.0001)     40 bccdd.baa----abdedd..................................................................bbbbb
(PID.TID 0000.0001)     39 ccdddddccbbbaa...ed.....................................................----........bbbbbb
(PID.TID 0000.0001)     38 fffgfedeedddc...........................................................-----......cbbbcde
(PID.TID 0000.0001)     37 ghh..................................................................bc...bbc...edeed.defg
(PID.TID 0000.0001)     36 hh.........................................ddcb....................dcccbabccdd.eefghhihhih
(PID.TID 0000.0001)     35 hh.................................aaab..dddeddd...ffggg...........ccc....ddeeeffghijjjjih
(PID.TID 0000.0001)     34 ...................................babb.deeeeeee.ffffgghh..................ccdffghijkkkj..
(PID.TID 0000.0001)     33 ....................................accdddeeeeefffffgghhiii.................bcfijkkllllkk.
(PID.TID 0000.0001)     32 ....................................bdddeffgffgghhhhhiiijjj................dccglmnmmmmlll.
(PID.TID 0000.0001)     31 ....................................fghiiiijjjjjjkkkkklllkk..............ikkjjmooooonnmm..
(PID.TID 0000.0001)     30 ...................................mmmnmmmmmmmmmmmmmnnnnnmm............moqrrrqrqqqpppooo..
(PID.TID 0000.0001)     29 .................................pqqqqqpppppppppoppoppppponm...........ssssssrrrrrqqqqpp..
(PID.TID 0000.0001)     28 ...............................prssssrrrsssrrrrrrrrrrrrrqqpoo.........uttssstssrssrrrqqq..
(PID.TID 0000.0001)     27 ..............vv..............stuttuuuuutuuuuuuuuuuttttssrrqqq...stuu.vvvuuuuutttttsss....
(PID.TID 0000.0001)     26 ..............vvv...........uuvvvvvwwwwwwwwvvvvvvvvvuuutttsssttv.uuvxxwwwwwwvvvvuuttsr....
(PID.TID 0000.0001)     25 ..............wwwx...xxx...vvvxxxxxyyxxxxxxxxxwwwwwvvvvvuuuuuvwwx...xxxxxxwwwwwwvvutsr....
(PID.TID 0000.0001)     24 ............wwwwxyy.xxyy...wxx.yyyyyyyyyyyxxxxxxxxwwwwwwwvvwwxxyywww.xxxxxxxxxxwwwvvur....
(PID.TID 0000.0001)     23 ............xxxyyyz.xyyy...xxx..yyyyzzyyyyyyyyxxxxxxxxxwwwwwxxxwwwwwx....vwxxxxwwwwwvu....
(PID.TID 0000.0001)     22 w...........xxyyyzyyyyyz...xx.yyzzzzzzzzzzzzzyyzyyyyyyxxwwxxxxwvvvwwxw......yyyyxxxxxxwxxw
(PID.TID 0000.0001)     21 xxx........xxxxyyzzzzzzz+.....zyzzzzzzz++zzzzyyyyyyyyxxwvvwwwwvvvvvvvu........yyyyyyyyyxxx
(PID.TID 0000.0001)     20 xww.......xyyyyxyyzzzzzz+......z.zzzzz+++zzzzzzyyyyyxxxxwvwxwvuuuuuuut.........yyyyxxxxwww
(PID.TID 0000.0001)     19 vvv.......yyyyxwwxyzyyzzzzz...zzz.....++++++z++z+zzzyyyyxxxxwwvvvvvvvu...........yyxxxwwww
(PID.TID 0000.0001)     18 uut.......zzyyywwxyzyyyyzzyzzzzzz...z+z++++zz+++++++zzzyyyyxxwwwvvvvvtt..........yyxxwvvwv
(PID.TID 0000.0001)     17 uus.......z.yyyyyyxyzzyyyyyyyzz.....yzzzzzzzzzzzzzzzzzzyyyyxxwwvuuvvuut.........yyyxxwttvu
(PID.TID 0000.0001)     16 utr......yy.zyyyyxxxxxxxwxxxxy.......yyyyyyyyyyyyyyyyyyyyyyyxxwvvvuuutts........xyyyxwvuuu
(PID.TID 0000.0001)     15 ttrr....xxx.xxxwxwwwwvwwvvvww.........xwxxxxxxxxxxxxxxxxxyyyxwwwvvuttssrr......wxxxxxwwvuu
(PID.TID 0000.0001)     14 ttsq....xyxwwxwvwwwvutuuuuuuu.........wwvwwwwvwvvwwwvwvvwwwwwwvvvuuutssrr.....vwwwwwwwvvvu
(PID.TID 0000.0001)     13 tttr....wwwvvvtttuuuutttssttt.........vvvuuuuuuutttttuuuuuvwwwuuuttttssrr....uvvvvvvvvvvut
(PID.TID 0000.0001)     12 sssssstttutssssrrrrrstrqqrrssqqrrq....uuttssssrrrrrrrrrrrstttssssrssrrqp.....uuuttssttssss
(PID.TID 0000.0001)     11 poprsssrqqqqqrqppooopqpoppppppppppp..sssrrr.rqpppqqqqppppqqqoppqqqqrqqpp....prsrqqqqqppppq
(PID.TID 0000.0001)     10 lllmoooonmnnmnnnnmmmmmmlmmlllmnnnnon.qqqppp.ppppppooooooooonmnnnonnooooo..nmoponnmnnnnnmll
(PID.TID 0000.0001)      9 ihhiiiihhhhhhiiihiiiiihhhiiiijjkkmnllnnnnn.mmmmnnnnmmmmnnmmlklllllklllll.mllmmllkjiijjihhi
(PID.TID 0000.0001)      8 eeeeeeeedefgggffeeffggffffggghiiiijjijklklkkkkkkkklllkkkkjjiiijkjjjjjjkj.kkjjiihggffffedde
(PID.TID 0000.0001)      7 cccccddeedddefeddddddddddefeefffffgggghiiiiiijjjihhgggghhhhhghhhhhhhiiiihiihhgfeddddddcccc
(PID.TID 0000.0001)      6 abbcccddcccccdddddccdddddddccddddddeeeeffggggghhgeddddddeeeeeeefggggghggggffeedccbbbbbbbba
(PID.TID 0000.0001)      5 bbbcccccccccccccccccccccbbccccdddddddcccddeeddeedcbbbbbbccccccdddeeeeeddddddccbbbbaaaaaaab
(PID.TID 0000.0001)      4 bbbbbbbaaabbbbbbbbbbbbaabbabbbbcbbbbbbbbbbbbbbbbbbbabbaaabbbbbbbbbbbbbbbbb..a--aaabbbaaabb
(PID.TID 0000.0001)      3 bbbbaaa-a-............................bbaaaaaaaaaaaaaaaaaaaaaaaaaaaaaaaab..aaaaaaaabbbaaaa
(PID.TID 0000.0001)      2 ..........................................baaaaaaaaaaaa-------aa..aaaa.....aaaaaaaaaaaa...
(PID.TID 0000.0001)      1 ..........................................................................................
(PID.TID 0000.0001) // =======================================================
(PID.TID 0000.0001) // END OF FIELD                                          =
(PID.TID 0000.0001) // =======================================================
(PID.TID 0000.0001) 
(PID.TID 0000.0001)  MDS_READ_FIELD: opening global file: lev_s.bin
(PID.TID 0000.0001) // =======================================================
(PID.TID 0000.0001) // Field Initial Salinity at iteration          1
(PID.TID 0000.0001) // CMIN =          2.975276947021484E+01
(PID.TID 0000.0001) // CMAX =          3.747562789916992E+01
(PID.TID 0000.0001) // CINT =          2.860317936650029E-01
(PID.TID 0000.0001) // SYMBOLS (CMIN->CMAX): -abcdefghijklmnopqrstuvwxyz+
(PID.TID 0000.0001) //                  0.0: .
(PID.TID 0000.0001) // RANGE I (Lo:Hi:Step):(   1:  90:   1)
(PID.TID 0000.0001) // RANGE J (Lo:Hi:Step):(  40:   1:  -1)
(PID.TID 0000.0001) // RANGE K (Lo:Hi:Step):(   1:   1:   1)
(PID.TID 0000.0001) // =======================================================
(PID.TID 0000.0001) K =   1
(PID.TID 0000.0001)                I=10      I=20      I=30      I=40      I=50      I=60      I=70      I=80      I=90
(PID.TID 0000.0001) |--J--|123456789|123456789|123456789|123456789|123456789|123456789|123456789|123456789|123456789|
(PID.TID 0000.0001)     40 qrrrr.oonnooopqtutt..................................................................mnnop
(PID.TID 0000.0001)     39 rssrrrrrrrqqpn...ut.....................................................mmmm........opqqqr
(PID.TID 0000.0001)     38 ssrrqqqqrrqpo...........................................................lkkll......onoqrrs
(PID.TID 0000.0001)     37 ssr..................................................................hg...lln...qppqr.rrrs
(PID.TID 0000.0001)     36 rr.........................................lkji....................feeegikmoop.pqrssssssss
(PID.TID 0000.0001)     35 rr.................................kkkk..lllllki...jijjj...........aa-....opqrrrrrrrssttss
(PID.TID 0000.0001)     34 ...................................jlll.kklllllk.ijkkkjih..................hlpqrqrrsstts..
(PID.TID 0000.0001)     33 ....................................iklkkkkkkkkkjkkjjjjjjii.................jmprrsstttttt.
(PID.TID 0000.0001)     32 ....................................iklllkllllllllkkkkkkkji................gilpstuuttuuut.
(PID.TID 0000.0001)     31 ....................................lmnonnnnoooonnmmmmllkjj..............loopqtvvvuuuuuu..
(PID.TID 0000.0001)     30 ...................................pppppppqqqqpppoooonnmlkk............ptvxwwvvwvvvvvvvu..
(PID.TID 0000.0001)     29 .................................pqqrqqqqqqrrrqqppqqqpponmll...........vxxxxxxwwwwwxwwxw..
(PID.TID 0000.0001)     28 ...............................prrrrrqqrrrrrsrrsrssssssrqonmm.........wxxxxxxxyyyyyyyyxx..
(PID.TID 0000.0001)     27 ..............xx..............prrrrrrrrrssssssstttssssssrqpoop...uwww.wwxxxyyy++zzzzyy....
(PID.TID 0000.0001)     26 ..............wxx...........ppqrrrrrrsssrrstsstttssrrrrrrrqppqqp.wwwvvwwwwwxyy+++zzyxw....
(PID.TID 0000.0001)     25 ..............wxxv...kkk...ooopqrrrrrssrrrrrrrssssqqpppppppppppoo...vvutuuvvwxyyyxxvvu....
(PID.TID 0000.0001)     24 ............uvvwwur.lmlk...nmm.pqqqqrrrrrqqqqrrqqrpppppooooonmmmnooo.uuuuuuttuvvvuvuut....
(PID.TID 0000.0001)     23 ............vvuvtqp.lmml...mln..ppppqpqppppppqpppppppppqppponnnnnoopm....xvuuuvvvvuuut....
(PID.TID 0000.0001)     22 r...........vuttsqqpnppn...mm.oppqqrrqqqqqqppppqqrrrqqqrrppppoopooomjj......uuvvvvvuttssrr
(PID.TID 0000.0001)     21 qmm........ttsssssssrsqon.....opqqqqqqqrrrrqqqssssssrrrrrrrrpqqqppomll........tvvvvuttssrr
(PID.TID 0000.0001)     20 sqq.......sttssrrsrrrrpol......p.qrqpqrrrrrrrstttttsssrrsssrqrrrrqqqpo.........wwwvvvuuutt
(PID.TID 0000.0001)     19 tsr.......ssssrrrrpppppnmmm...oqq.....qrqqsrrstttuuuttssttssrrssrrrrqq...........wwwvuvvvv
(PID.TID 0000.0001)     18 wut.......ssrrrrrqppppppppoooorrr...poqqqprrrttttuuutuuuuuutttttttutsss..........yyxwwxwxx
(PID.TID 0000.0001)     17 wwu.......s.rrrrrrqppppqqqqqqqr.....rrsrqrsssuusrtuuuvvvwwvvvuuuuutttss.........xyzyyyyxxx
(PID.TID 0000.0001)     16 vvt......ss.qrrssrqrqpqrrrrrrr.......ssrrstsstusrsuuuvwwwwxxwwvvvuttttsr........yz+zzzxwww
(PID.TID 0000.0001)     15 utss....stt.rrssstttsrrsrstsr.........ssstttssttsuuttuvvvvwxwwwwwuttsssrr......xyyyyxyyxwv
(PID.TID 0000.0001)     14 utts....sstrrssstuuuuuuuuuutt.........stttuutttttttuttttttuvvvvvvutsrqrrr.....vxxwwwwxwvwv
(PID.TID 0000.0001)     13 uuut....ttttttttuuuuuvtuuuuuu.........ttttuutttttttuutsssstttttstsqrqqppp....uwwwvuvvvutvv
(PID.TID 0000.0001)     12 ttttttttttttttttttttttssuuuuutuuut....tttttttttttsssssrrrrrrrqqqqqppppoo.....rvvuuttttttuu
(PID.TID 0000.0001)     11 rqsttttttttuuttttsssssrrstttttttsss..ttttts.tsssrrrrqqqqqppppoonnooooooo....oruttttsssrqrs
(PID.TID 0000.0001)     10 pppqrssrqqrqpqrssrrqqqqqqrrrrrrrrrrs.sssssr.rssrrqqpppppppooooonnnoooonn..moqrrrqqqqqqqqqq
(PID.TID 0000.0001)      9 oonooooooooonnnooooooooooppppppqqqqqrrrqrq.pppqqqqqppppppppppoooooooooll.lmoqqqqppooooopoo
(PID.TID 0000.0001)      8 nnnoonooooooonnnnnnnoooonoonoooppopqqqqqqqppopppqqqpppppppppppppppooopon.lnopppoooonnnnooo
(PID.TID 0000.0001)      7 ooooooooooopponnnooooooonnnnnonnooooooooopppppppoooooooooopppppppppoopqnnmnoooonnnonnnnnno
(PID.TID 0000.0001)      6 oooonnoonnnnooooooooooooonnnnnnnnnnnnnnnnoooopppooooooooooooooppppppppppoooooooonnnnnmnnnn
(PID.TID 0000.0001)      5 oooonnnnnnnnnnnnnnnnnoooooonnnnnnonnnnnnnnnoooooooooooonnnnnnooooooopoooonoooonnnnnnnooooo
(PID.TID 0000.0001)      4 oooonnnooonnnnnnnnnnnnnnoooooonnnooooonnnooooooooppponnnnmmmnnnnmnnoonnnnn..nnnooooooooooo
(PID.TID 0000.0001)      3 ooonnnnnnn............................nnoooooonnooooonnnnnnnoonnnnnnnnmmm..ooopooooooooooo
(PID.TID 0000.0001)      2 ..........................................pppooooonnnnnnoooppppo..nnnn.....qqqpppoooooo...
(PID.TID 0000.0001)      1 ..........................................................................................
(PID.TID 0000.0001) // =======================================================
(PID.TID 0000.0001) // END OF FIELD                                          =
(PID.TID 0000.0001) // =======================================================
(PID.TID 0000.0001) 
(PID.TID 0000.0001) Start initial hydrostatic pressure computation
(PID.TID 0000.0001) Pressure is predetermined for buoyancyRelation OCEANIC
(PID.TID 0000.0001) 
(PID.TID 0000.0001)  MDS_READ_FIELD: opening global file: trenberth_taux.bin
(PID.TID 0000.0001)  MDS_READ_FIELD: opening global file: trenberth_tauy.bin
(PID.TID 0000.0001)  MDS_READ_FIELD: opening global file: ncep_qnet.bin
(PID.TID 0000.0001)  MDS_READ_FIELD: opening global file: ncep_emp.bin
(PID.TID 0000.0001)  MDS_READ_FIELD: opening global file: lev_sst.bin
(PID.TID 0000.0001)  MDS_READ_FIELD: opening global file: lev_sss.bin
(PID.TID 0000.0001) // =======================================================
(PID.TID 0000.0001) // Model current state
(PID.TID 0000.0001) // =======================================================
(PID.TID 0000.0001) 
(PID.TID 0000.0001) // =======================================================
(PID.TID 0000.0001) // Begin MONITOR dynamic field statistics
(PID.TID 0000.0001) // =======================================================
(PID.TID 0000.0001) %MON time_tsnumber                =                     0
(PID.TID 0000.0001) %MON time_secondsf                =   0.0000000000000E+00
(PID.TID 0000.0001) %MON dynstat_eta_max              =   0.0000000000000E+00
(PID.TID 0000.0001) %MON dynstat_eta_min              =   0.0000000000000E+00
(PID.TID 0000.0001) %MON dynstat_eta_mean             =   0.0000000000000E+00
(PID.TID 0000.0001) %MON dynstat_eta_sd               =   0.0000000000000E+00
(PID.TID 0000.0001) %MON dynstat_eta_del2             =   0.0000000000000E+00
(PID.TID 0000.0001) %MON dynstat_uvel_max             =   0.0000000000000E+00
(PID.TID 0000.0001) %MON dynstat_uvel_min             =   0.0000000000000E+00
(PID.TID 0000.0001) %MON dynstat_uvel_mean            =   0.0000000000000E+00
(PID.TID 0000.0001) %MON dynstat_uvel_sd              =   0.0000000000000E+00
(PID.TID 0000.0001) %MON dynstat_uvel_del2            =   0.0000000000000E+00
(PID.TID 0000.0001) %MON dynstat_vvel_max             =   0.0000000000000E+00
(PID.TID 0000.0001) %MON dynstat_vvel_min             =   0.0000000000000E+00
(PID.TID 0000.0001) %MON dynstat_vvel_mean            =   0.0000000000000E+00
(PID.TID 0000.0001) %MON dynstat_vvel_sd              =   0.0000000000000E+00
(PID.TID 0000.0001) %MON dynstat_vvel_del2            =   0.0000000000000E+00
(PID.TID 0000.0001) %MON dynstat_wvel_max             =   0.0000000000000E+00
(PID.TID 0000.0001) %MON dynstat_wvel_min             =   0.0000000000000E+00
(PID.TID 0000.0001) %MON dynstat_wvel_mean            =   0.0000000000000E+00
(PID.TID 0000.0001) %MON dynstat_wvel_sd              =   0.0000000000000E+00
(PID.TID 0000.0001) %MON dynstat_wvel_del2            =   0.0000000000000E+00
(PID.TID 0000.0001) %MON dynstat_theta_max            =   2.9733388900757E+01
(PID.TID 0000.0001) %MON dynstat_theta_min            =  -1.9000000000000E+00
(PID.TID 0000.0001) %MON dynstat_theta_mean           =   3.6197074666131E+00
(PID.TID 0000.0001) %MON dynstat_theta_sd             =   4.4174614518570E+00
(PID.TID 0000.0001) %MON dynstat_theta_del2           =   1.5097301766230E-01
(PID.TID 0000.0001) %MON dynstat_salt_max             =   3.7475627899170E+01
(PID.TID 0000.0001) %MON dynstat_salt_min             =   2.9752769470215E+01
(PID.TID 0000.0001) %MON dynstat_salt_mean            =   3.4718006161477E+01
(PID.TID 0000.0001) %MON dynstat_salt_sd              =   2.9628819587991E-01
(PID.TID 0000.0001) %MON dynstat_salt_del2            =   2.6251884861846E-02
(PID.TID 0000.0001) %MON extforcing_qnet_max          =   4.4161361694336E+02
(PID.TID 0000.0001) %MON extforcing_qnet_min          =  -1.8132531738281E+02
(PID.TID 0000.0001) %MON extforcing_qnet_mean         =  -1.6512526001044E+01
(PID.TID 0000.0001) %MON extforcing_qnet_sd           =   1.0987288293460E+02
(PID.TID 0000.0001) %MON extforcing_qnet_del2         =   9.6689454498868E+00
(PID.TID 0000.0001) %MON extforcing_qsw_max           =   0.0000000000000E+00
(PID.TID 0000.0001) %MON extforcing_qsw_min           =   0.0000000000000E+00
(PID.TID 0000.0001) %MON extforcing_qsw_mean          =   0.0000000000000E+00
(PID.TID 0000.0001) %MON extforcing_qsw_sd            =   0.0000000000000E+00
(PID.TID 0000.0001) %MON extforcing_qsw_del2          =   0.0000000000000E+00
(PID.TID 0000.0001) %MON extforcing_empmr_max         =   8.2174238968946E-08
(PID.TID 0000.0001) %MON extforcing_empmr_min         =  -7.6155956207913E-08
(PID.TID 0000.0001) %MON extforcing_empmr_mean        =   9.2293706211063E-10
(PID.TID 0000.0001) %MON extforcing_empmr_sd          =   2.8800050217957E-08
(PID.TID 0000.0001) %MON extforcing_empmr_del2        =   3.7517335599309E-09
(PID.TID 0000.0001) %MON extforcing_fu_max            =   2.7877888083458E-01
(PID.TID 0000.0001) %MON extforcing_fu_min            =  -1.7088057100773E-01
(PID.TID 0000.0001) %MON extforcing_fu_mean           =   1.5772656525559E-02
(PID.TID 0000.0001) %MON extforcing_fu_sd             =   8.9335906911385E-02
(PID.TID 0000.0001) %MON extforcing_fu_del2           =   7.7282201511318E-03
(PID.TID 0000.0001) %MON extforcing_fv_max            =   2.3312132060528E-01
(PID.TID 0000.0001) %MON extforcing_fv_min            =  -1.7164227366447E-01
(PID.TID 0000.0001) %MON extforcing_fv_mean           =  -1.0801448791534E-02
(PID.TID 0000.0001) %MON extforcing_fv_sd             =   4.0384841718212E-02
(PID.TID 0000.0001) %MON extforcing_fv_del2           =   4.5334593570379E-03
(PID.TID 0000.0001) %MON advcfl_uvel_max              =   0.0000000000000E+00
(PID.TID 0000.0001) %MON advcfl_vvel_max              =   0.0000000000000E+00
(PID.TID 0000.0001) %MON advcfl_wvel_max              =   0.0000000000000E+00
(PID.TID 0000.0001) %MON advcfl_W_hf_max              =   0.0000000000000E+00
(PID.TID 0000.0001) %MON pe_b_mean                    =   0.0000000000000E+00
(PID.TID 0000.0001) %MON ke_max                       =   0.0000000000000E+00
(PID.TID 0000.0001) %MON ke_mean                      =   0.0000000000000E+00
(PID.TID 0000.0001) %MON ke_vol                       =   1.3226782436723E+18
(PID.TID 0000.0001) %MON vort_r_min                   =   0.0000000000000E+00
(PID.TID 0000.0001) %MON vort_r_max                   =   0.0000000000000E+00
(PID.TID 0000.0001) %MON vort_a_mean                  =  -2.5274807396950E-05
(PID.TID 0000.0001) %MON vort_a_sd                    =   7.3604350271443E-05
(PID.TID 0000.0001) %MON vort_p_mean                  =  -3.1845655798841E-05
(PID.TID 0000.0001) %MON vort_p_sd                    =   1.3162570071704E-04
(PID.TID 0000.0001) %MON surfExpan_theta_mean         =   0.0000000000000E+00
(PID.TID 0000.0001) %MON surfExpan_salt_mean          =   0.0000000000000E+00
(PID.TID 0000.0001) // =======================================================
(PID.TID 0000.0001) // End MONITOR dynamic field statistics
(PID.TID 0000.0001) // =======================================================
(PID.TID 0000.0001) // =======================================================
(PID.TID 0000.0001) // Begin MONITOR ptracer field statistics
(PID.TID 0000.0001) // =======================================================
(PID.TID 0000.0001) %MON trcstat_ptracer01_max        =   0.0000000000000E+00
(PID.TID 0000.0001) %MON trcstat_ptracer01_min        =   0.0000000000000E+00
(PID.TID 0000.0001) %MON trcstat_ptracer01_mean       =   0.0000000000000E+00
(PID.TID 0000.0001) %MON trcstat_ptracer01_sd         =   0.0000000000000E+00
(PID.TID 0000.0001) %MON trcstat_ptracer01_del2       =   0.0000000000000E+00
(PID.TID 0000.0001) // =======================================================
(PID.TID 0000.0001) // End MONITOR ptracers field statistics
(PID.TID 0000.0001) // =======================================================
S/R EXTERNAL_FIELDS_LOAD: Reading new data:   12    1         0  0.000000000000E+00
(PID.TID 0000.0001)  MDS_READ_FIELD: opening global file: trenberth_taux.bin
(PID.TID 0000.0001)  MDS_READ_FIELD: opening global file: trenberth_taux.bin
(PID.TID 0000.0001)  MDS_READ_FIELD: opening global file: trenberth_tauy.bin
(PID.TID 0000.0001)  MDS_READ_FIELD: opening global file: trenberth_tauy.bin
(PID.TID 0000.0001)  MDS_READ_FIELD: opening global file: ncep_qnet.bin
(PID.TID 0000.0001)  MDS_READ_FIELD: opening global file: ncep_qnet.bin
(PID.TID 0000.0001)  MDS_READ_FIELD: opening global file: ncep_emp.bin
(PID.TID 0000.0001)  MDS_READ_FIELD: opening global file: ncep_emp.bin
(PID.TID 0000.0001)  MDS_READ_FIELD: opening global file: lev_sst.bin
(PID.TID 0000.0001)  MDS_READ_FIELD: opening global file: lev_sst.bin
(PID.TID 0000.0001)  MDS_READ_FIELD: opening global file: lev_sss.bin
(PID.TID 0000.0001)  MDS_READ_FIELD: opening global file: lev_sss.bin
time,SST,SSS,fu,fv,Q,E-P,i0,i1,a,b =   0.0000E+00  5.3151E-02  3.4364E+01 -4.0500E-02 -6.3753E-02  2.6510E+02  1.0843E-08    12     1  5.0000E-01  5.0000E-01
time,fu0,fu1,fu =   0.0000E+00 -4.5368E-02 -3.5633E-02 -4.0500E-02  5.000000000000000E-01  5.000000000000000E-01
 cg2d: Sum(rhs),rhsMax =   3.70508933660302E-03  2.54927113998744E+00
(PID.TID 0000.0001)                    cg2d_init_res =    6.15844453763648E+00
(PID.TID 0000.0001)                       cg2d_iters =   142
(PID.TID 0000.0001)                         cg2d_res =    9.14095192224355E-14
(PID.TID 0000.0001) // =======================================================
(PID.TID 0000.0001) // Begin MONITOR dynamic field statistics
(PID.TID 0000.0001) // =======================================================
(PID.TID 0000.0001) %MON time_tsnumber                =                     1
(PID.TID 0000.0001) %MON time_secondsf                =   8.6400000000000E+04
(PID.TID 0000.0001) %MON dynstat_eta_max              =   6.5958488699551E-01
(PID.TID 0000.0001) %MON dynstat_eta_min              =  -8.0835404305904E-01
(PID.TID 0000.0001) %MON dynstat_eta_mean             =  -6.4811745051414E-05
(PID.TID 0000.0001) %MON dynstat_eta_sd               =   2.5965440360324E-01
(PID.TID 0000.0001) %MON dynstat_eta_del2             =   2.5281505404206E-02
(PID.TID 0000.0001) %MON dynstat_uvel_max             =   1.5158309744614E-02
(PID.TID 0000.0001) %MON dynstat_uvel_min             =  -1.6708732943418E-02
(PID.TID 0000.0001) %MON dynstat_uvel_mean            =  -5.1383409808450E-04
(PID.TID 0000.0001) %MON dynstat_uvel_sd              =   1.2647344356107E-03
(PID.TID 0000.0001) %MON dynstat_uvel_del2            =   5.5990850653030E-04
(PID.TID 0000.0001) %MON dynstat_vvel_max             =   1.8053048862944E-02
(PID.TID 0000.0001) %MON dynstat_vvel_min             =  -2.1368040981480E-02
(PID.TID 0000.0001) %MON dynstat_vvel_mean            =   7.3100703241455E-04
(PID.TID 0000.0001) %MON dynstat_vvel_sd              =   2.4750813838835E-03
(PID.TID 0000.0001) %MON dynstat_vvel_del2            =   6.3983780377869E-04
(PID.TID 0000.0001) %MON dynstat_wvel_max             =   6.2732222545290E-05
(PID.TID 0000.0001) %MON dynstat_wvel_min             =  -5.6766294178854E-05
(PID.TID 0000.0001) %MON dynstat_wvel_mean            =  -2.7891298226059E-23
(PID.TID 0000.0001) %MON dynstat_wvel_sd              =   7.1455736304656E-06
(PID.TID 0000.0001) %MON dynstat_wvel_del2            =   2.9254292238634E-06
(PID.TID 0000.0001) %MON dynstat_theta_max            =   2.9727194695260E+01
(PID.TID 0000.0001) %MON dynstat_theta_min            =  -1.9000840374778E+00
(PID.TID 0000.0001) %MON dynstat_theta_mean           =   3.6197724302515E+00
(PID.TID 0000.0001) %MON dynstat_theta_sd             =   4.4171656828420E+00
(PID.TID 0000.0001) %MON dynstat_theta_del2           =   1.5169422064151E-01
(PID.TID 0000.0001) %MON dynstat_salt_max             =   3.7467944348359E+01
(PID.TID 0000.0001) %MON dynstat_salt_min             =   2.9755344757050E+01
(PID.TID 0000.0001) %MON dynstat_salt_mean            =   3.4718006780218E+01
(PID.TID 0000.0001) %MON dynstat_salt_sd              =   2.9617241015381E-01
(PID.TID 0000.0001) %MON dynstat_salt_del2            =   2.6407828580349E-02
(PID.TID 0000.0001) %MON extforcing_qnet_max          =   4.2589080810547E+02
(PID.TID 0000.0001) %MON extforcing_qnet_min          =  -1.8702698516846E+02
(PID.TID 0000.0001) %MON extforcing_qnet_mean         =  -1.6700205338390E+01
(PID.TID 0000.0001) %MON extforcing_qnet_sd           =   1.1285666794876E+02
(PID.TID 0000.0001) %MON extforcing_qnet_del2         =   9.4920800031777E+00
(PID.TID 0000.0001) %MON extforcing_qsw_max           =   0.0000000000000E+00
(PID.TID 0000.0001) %MON extforcing_qsw_min           =   0.0000000000000E+00
(PID.TID 0000.0001) %MON extforcing_qsw_mean          =   0.0000000000000E+00
(PID.TID 0000.0001) %MON extforcing_qsw_sd            =   0.0000000000000E+00
(PID.TID 0000.0001) %MON extforcing_qsw_del2          =   0.0000000000000E+00
(PID.TID 0000.0001) %MON extforcing_empmr_max         =   8.3243762105667E-08
(PID.TID 0000.0001) %MON extforcing_empmr_min         =  -7.4169506092403E-08
(PID.TID 0000.0001) %MON extforcing_empmr_mean        =   7.7639069592806E-10
(PID.TID 0000.0001) %MON extforcing_empmr_sd          =   2.7794934142646E-08
(PID.TID 0000.0001) %MON extforcing_empmr_del2        =   3.7027911653282E-09
(PID.TID 0000.0001) %MON extforcing_fu_max            =   2.7288834750652E-01
(PID.TID 0000.0001) %MON extforcing_fu_min            =  -1.6014087945223E-01
(PID.TID 0000.0001) %MON extforcing_fu_mean           =   1.6847921547048E-02
(PID.TID 0000.0001) %MON extforcing_fu_sd             =   8.9028560186102E-02
(PID.TID 0000.0001) %MON extforcing_fu_del2           =   7.4070129287219E-03
(PID.TID 0000.0001) %MON extforcing_fv_max            =   2.0835298299789E-01
(PID.TID 0000.0001) %MON extforcing_fv_min            =  -1.5684480965137E-01
(PID.TID 0000.0001) %MON extforcing_fv_mean           =  -1.0240470697225E-02
(PID.TID 0000.0001) %MON extforcing_fv_sd             =   3.9756247049146E-02
(PID.TID 0000.0001) %MON extforcing_fv_del2           =   4.0886333658502E-03
(PID.TID 0000.0001) %MON advcfl_uvel_max              =   6.2569403145550E-03
(PID.TID 0000.0001) %MON advcfl_vvel_max              =   4.1514676605259E-03
(PID.TID 0000.0001) %MON advcfl_wvel_max              =   3.2395082918055E-02
(PID.TID 0000.0001) %MON advcfl_W_hf_max              =   4.5152194937653E-02
(PID.TID 0000.0001) %MON pe_b_mean                    =   8.6272545460773E-05
(PID.TID 0000.0001) %MON ke_max                       =   1.9814789972770E-04
(PID.TID 0000.0001) %MON ke_mean                      =   3.8367971682897E-06
(PID.TID 0000.0001) %MON ke_vol                       =   1.3226782436723E+18
(PID.TID 0000.0001) %MON vort_r_min                   =  -8.7828725082878E-08
(PID.TID 0000.0001) %MON vort_r_max                   =   6.7513066589479E-08
(PID.TID 0000.0001) %MON vort_a_mean                  =  -2.5274807339750E-05
(PID.TID 0000.0001) %MON vort_a_sd                    =   7.3604247148406E-05
(PID.TID 0000.0001) %MON vort_p_mean                  =  -3.1845655726769E-05
(PID.TID 0000.0001) %MON vort_p_sd                    =   1.3162541835841E-04
(PID.TID 0000.0001) %MON surfExpan_theta_mean         =   2.1638492764470E-05
(PID.TID 0000.0001) %MON surfExpan_salt_mean          =   1.5080868114622E-06
(PID.TID 0000.0001) // =======================================================
(PID.TID 0000.0001) // End MONITOR dynamic field statistics
(PID.TID 0000.0001) // =======================================================
(PID.TID 0000.0001) // =======================================================
(PID.TID 0000.0001) // Begin MONITOR ptracer field statistics
(PID.TID 0000.0001) // =======================================================
(PID.TID 0000.0001) %MON trcstat_ptracer01_max        =   8.6400000000001E+04
(PID.TID 0000.0001) %MON trcstat_ptracer01_min        =   7.4539546605236E+01
(PID.TID 0000.0001) %MON trcstat_ptracer01_mean       =   8.5272994760076E+04
(PID.TID 0000.0001) %MON trcstat_ptracer01_sd         =   9.7387735932297E+03
(PID.TID 0000.0001) %MON trcstat_ptracer01_del2       =   1.1975769861525E+02
(PID.TID 0000.0001) // =======================================================
(PID.TID 0000.0001) // End MONITOR ptracers field statistics
(PID.TID 0000.0001) // =======================================================
time,SST,SSS,fu,fv,Q,E-P,i0,i1,a,b =   8.6400E+04  1.1350E-01  3.4387E+01 -4.0176E-02 -6.3320E-02  2.6514E+02  1.0896E-08    12     1  5.3333E-01  4.6667E-01
time,fu0,fu1,fu =   8.6400E+04 -4.5368E-02 -3.5633E-02 -4.0176E-02  5.333333333333333E-01  4.666666666666667E-01
 cg2d: Sum(rhs),rhsMax =   7.24634948356676E-03  2.62330845021835E+00
(PID.TID 0000.0001)                    cg2d_init_res =    5.63297322792468E-01
(PID.TID 0000.0001)                       cg2d_iters =   139
(PID.TID 0000.0001)                         cg2d_res =    8.38844469710450E-14
(PID.TID 0000.0001) // =======================================================
(PID.TID 0000.0001) // Begin MONITOR dynamic field statistics
(PID.TID 0000.0001) // =======================================================
(PID.TID 0000.0001) %MON time_tsnumber                =                     2
(PID.TID 0000.0001) %MON time_secondsf                =   1.7280000000000E+05
(PID.TID 0000.0001) %MON dynstat_eta_max              =   8.9828976389747E-01
(PID.TID 0000.0001) %MON dynstat_eta_min              =  -1.3152812189699E+00
(PID.TID 0000.0001) %MON dynstat_eta_mean             =  -1.3043905248837E-04
(PID.TID 0000.0001) %MON dynstat_eta_sd               =   4.4103730764512E-01
(PID.TID 0000.0001) %MON dynstat_eta_del2             =   2.5851922692305E-02
(PID.TID 0000.0001) %MON dynstat_uvel_max             =   3.1915538545171E-02
(PID.TID 0000.0001) %MON dynstat_uvel_min             =  -3.2926171719443E-02
(PID.TID 0000.0001) %MON dynstat_uvel_mean            =  -8.4135832564471E-04
(PID.TID 0000.0001) %MON dynstat_uvel_sd              =   2.3998134529033E-03
(PID.TID 0000.0001) %MON dynstat_uvel_del2            =   1.0338728258685E-03
(PID.TID 0000.0001) %MON dynstat_vvel_max             =   3.5884159012976E-02
(PID.TID 0000.0001) %MON dynstat_vvel_min             =  -4.3465437294055E-02
(PID.TID 0000.0001) %MON dynstat_vvel_mean            =   9.2569316580309E-04
(PID.TID 0000.0001) %MON dynstat_vvel_sd              =   4.2151429724848E-03
(PID.TID 0000.0001) %MON dynstat_vvel_del2            =   1.2102610860959E-03
(PID.TID 0000.0001) %MON dynstat_wvel_max             =   1.0737840657303E-04
(PID.TID 0000.0001) %MON dynstat_wvel_min             =  -9.7655303741056E-05
(PID.TID 0000.0001) %MON dynstat_wvel_mean            =   2.5248964709906E-22
(PID.TID 0000.0001) %MON dynstat_wvel_sd              =   1.2023495475581E-05
(PID.TID 0000.0001) %MON dynstat_wvel_del2            =   5.0951709642212E-06
(PID.TID 0000.0001) %MON dynstat_theta_max            =   2.9709534043795E+01
(PID.TID 0000.0001) %MON dynstat_theta_min            =  -1.9009852287901E+00
(PID.TID 0000.0001) %MON dynstat_theta_mean           =   3.6190585573552E+00
(PID.TID 0000.0001) %MON dynstat_theta_sd             =   4.4152823243215E+00
(PID.TID 0000.0001) %MON dynstat_theta_del2           =   1.5110980633401E-01
(PID.TID 0000.0001) %MON dynstat_salt_max             =   3.7460528657905E+01
(PID.TID 0000.0001) %MON dynstat_salt_min             =   2.9758135293246E+01
(PID.TID 0000.0001) %MON dynstat_salt_mean            =   3.4717953092760E+01
(PID.TID 0000.0001) %MON dynstat_salt_sd              =   2.9610748339420E-01
(PID.TID 0000.0001) %MON dynstat_salt_del2            =   2.6491485378726E-02
(PID.TID 0000.0001) %MON extforcing_qnet_max          =   4.2693899536133E+02
(PID.TID 0000.0001) %MON extforcing_qnet_min          =  -1.8655982259115E+02
(PID.TID 0000.0001) %MON extforcing_qnet_mean         =  -1.6687693382567E+01
(PID.TID 0000.0001) %MON extforcing_qnet_sd           =   1.1263946608433E+02
(PID.TID 0000.0001) %MON extforcing_qnet_del2         =   9.4914987500818E+00
(PID.TID 0000.0001) %MON extforcing_qsw_max           =   0.0000000000000E+00
(PID.TID 0000.0001) %MON extforcing_qsw_min           =   0.0000000000000E+00
(PID.TID 0000.0001) %MON extforcing_qsw_mean          =   0.0000000000000E+00
(PID.TID 0000.0001) %MON extforcing_qsw_sd            =   0.0000000000000E+00
(PID.TID 0000.0001) %MON extforcing_qsw_del2          =   0.0000000000000E+00
(PID.TID 0000.0001) %MON extforcing_empmr_max         =   8.2987928351486E-08
(PID.TID 0000.0001) %MON extforcing_empmr_min         =  -7.3906322484163E-08
(PID.TID 0000.0001) %MON extforcing_empmr_mean        =   7.8616045367356E-10
(PID.TID 0000.0001) %MON extforcing_empmr_sd          =   2.7832317986922E-08
(PID.TID 0000.0001) %MON extforcing_empmr_del2        =   3.6998499085005E-09
(PID.TID 0000.0001) %MON extforcing_fu_max            =   2.7169304092725E-01
(PID.TID 0000.0001) %MON extforcing_fu_min            =  -1.5949268937111E-01
(PID.TID 0000.0001) %MON extforcing_fu_mean           =   1.6776237212282E-02
(PID.TID 0000.0001) %MON extforcing_fu_sd             =   8.8983904526195E-02
(PID.TID 0000.0001) %MON extforcing_fu_del2           =   7.4034533136687E-03
(PID.TID 0000.0001) %MON extforcing_fv_max            =   2.0882657567660E-01
(PID.TID 0000.0001) %MON extforcing_fv_min            =  -1.5530859331290E-01
(PID.TID 0000.0001) %MON extforcing_fv_mean           =  -1.0277869236845E-02
(PID.TID 0000.0001) %MON extforcing_fv_sd             =   3.9722127318481E-02
(PID.TID 0000.0001) %MON extforcing_fv_del2           =   4.0897616674852E-03
(PID.TID 0000.0001) %MON advcfl_uvel_max              =   1.0970789543672E-02
(PID.TID 0000.0001) %MON advcfl_vvel_max              =   8.4446373644304E-03
(PID.TID 0000.0001) %MON advcfl_wvel_max              =   3.3487390407716E-02
(PID.TID 0000.0001) %MON advcfl_W_hf_max              =   4.3964088453799E-02
(PID.TID 0000.0001) %MON pe_b_mean                    =   2.4890401075098E-04
(PID.TID 0000.0001) %MON ke_max                       =   9.0706443626778E-04
(PID.TID 0000.0001) %MON ke_mean                      =   1.1299332611993E-05
(PID.TID 0000.0001) %MON ke_vol                       =   1.3226782436723E+18
(PID.TID 0000.0001) %MON vort_r_min                   =  -1.7920931166701E-07
(PID.TID 0000.0001) %MON vort_r_max                   =   1.4669814846362E-07
(PID.TID 0000.0001) %MON vort_a_mean                  =  -2.5274807287565E-05
(PID.TID 0000.0001) %MON vort_a_sd                    =   7.3604184650957E-05
(PID.TID 0000.0001) %MON vort_p_mean                  =  -3.1845655661018E-05
(PID.TID 0000.0001) %MON vort_p_sd                    =   1.3162516051960E-04
(PID.TID 0000.0001) %MON surfExpan_theta_mean         =   1.9390962030126E-05
(PID.TID 0000.0001) %MON surfExpan_salt_mean          =   1.1534432417911E-06
(PID.TID 0000.0001) // =======================================================
(PID.TID 0000.0001) // End MONITOR dynamic field statistics
(PID.TID 0000.0001) // =======================================================
(PID.TID 0000.0001) // =======================================================
(PID.TID 0000.0001) // Begin MONITOR ptracer field statistics
(PID.TID 0000.0001) // =======================================================
(PID.TID 0000.0001) %MON trcstat_ptracer01_max        =   1.7284292164461E+05
(PID.TID 0000.0001) %MON trcstat_ptracer01_min        =   2.1544055140241E+02
(PID.TID 0000.0001) %MON trcstat_ptracer01_mean       =   1.7054488336324E+05
(PID.TID 0000.0001) %MON trcstat_ptracer01_sd         =   1.9420909583840E+04
(PID.TID 0000.0001) %MON trcstat_ptracer01_del2       =   2.7509728717332E+02
(PID.TID 0000.0001) // =======================================================
(PID.TID 0000.0001) // End MONITOR ptracers field statistics
(PID.TID 0000.0001) // =======================================================
time,SST,SSS,fu,fv,Q,E-P,i0,i1,a,b =   1.7280E+05  1.7385E-01  3.4410E+01 -3.9851E-02 -6.2886E-02  2.6519E+02  1.0949E-08    12     1  5.6667E-01  4.3333E-01
time,fu0,fu1,fu =   1.7280E+05 -4.5368E-02 -3.5633E-02 -3.9851E-02  5.666666666666667E-01  4.333333333333333E-01
 cg2d: Sum(rhs),rhsMax =   1.19670751075581E-02  2.39761155436877E+00
(PID.TID 0000.0001)                    cg2d_init_res =    4.96617015900533E-01
(PID.TID 0000.0001)                       cg2d_iters =   138
(PID.TID 0000.0001)                         cg2d_res =    9.53237104262759E-14
(PID.TID 0000.0001) // =======================================================
(PID.TID 0000.0001) // Begin MONITOR dynamic field statistics
(PID.TID 0000.0001) // =======================================================
(PID.TID 0000.0001) %MON time_tsnumber                =                     3
(PID.TID 0000.0001) %MON time_secondsf                =   2.5920000000000E+05
(PID.TID 0000.0001) %MON dynstat_eta_max              =   8.9032988895494E-01
(PID.TID 0000.0001) %MON dynstat_eta_min              =  -1.5825261454988E+00
(PID.TID 0000.0001) %MON dynstat_eta_mean             =  -1.9688192231130E-04
(PID.TID 0000.0001) %MON dynstat_eta_sd               =   5.2918311813935E-01
(PID.TID 0000.0001) %MON dynstat_eta_del2             =   2.4595570511943E-02
(PID.TID 0000.0001) %MON dynstat_uvel_max             =   5.1299556153003E-02
(PID.TID 0000.0001) %MON dynstat_uvel_min             =  -4.7472385220783E-02
(PID.TID 0000.0001) %MON dynstat_uvel_mean            =  -9.3448159737845E-04
(PID.TID 0000.0001) %MON dynstat_uvel_sd              =   3.5368750753198E-03
(PID.TID 0000.0001) %MON dynstat_uvel_del2            =   1.4402779473332E-03
(PID.TID 0000.0001) %MON dynstat_vvel_max             =   5.1433913733784E-02
(PID.TID 0000.0001) %MON dynstat_vvel_min             =  -6.3852389184885E-02
(PID.TID 0000.0001) %MON dynstat_vvel_mean            =   8.1636235656411E-04
(PID.TID 0000.0001) %MON dynstat_vvel_sd              =   5.8840718461262E-03
(PID.TID 0000.0001) %MON dynstat_vvel_del2            =   1.7147088207965E-03
(PID.TID 0000.0001) %MON dynstat_wvel_max             =   1.4900007801698E-04
(PID.TID 0000.0001) %MON dynstat_wvel_min             =  -1.3137368186570E-04
(PID.TID 0000.0001) %MON dynstat_wvel_mean            =  -2.4661779484095E-22
(PID.TID 0000.0001) %MON dynstat_wvel_sd              =   1.6481380375104E-05
(PID.TID 0000.0001) %MON dynstat_wvel_del2            =   7.0159181637504E-06
(PID.TID 0000.0001) %MON dynstat_theta_max            =   2.9692667158522E+01
(PID.TID 0000.0001) %MON dynstat_theta_min            =  -1.9020235922893E+00
(PID.TID 0000.0001) %MON dynstat_theta_mean           =   3.6187188046352E+00
(PID.TID 0000.0001) %MON dynstat_theta_sd             =   4.4141645101262E+00
(PID.TID 0000.0001) %MON dynstat_theta_del2           =   1.4985927590824E-01
(PID.TID 0000.0001) %MON dynstat_salt_max             =   3.7454222358869E+01
(PID.TID 0000.0001) %MON dynstat_salt_min             =   2.9759079812298E+01
(PID.TID 0000.0001) %MON dynstat_salt_mean            =   3.4717932577737E+01
(PID.TID 0000.0001) %MON dynstat_salt_sd              =   2.9609734024636E-01
(PID.TID 0000.0001) %MON dynstat_salt_del2            =   2.6430212002908E-02
(PID.TID 0000.0001) %MON extforcing_qnet_max          =   4.2798718261719E+02
(PID.TID 0000.0001) %MON extforcing_qnet_min          =  -1.8609266001383E+02
(PID.TID 0000.0001) %MON extforcing_qnet_mean         =  -1.6675181426744E+01
(PID.TID 0000.0001) %MON extforcing_qnet_sd           =   1.1242481361476E+02
(PID.TID 0000.0001) %MON extforcing_qnet_del2         =   9.4925698128427E+00
(PID.TID 0000.0001) %MON extforcing_qsw_max           =   0.0000000000000E+00
(PID.TID 0000.0001) %MON extforcing_qsw_min           =   0.0000000000000E+00
(PID.TID 0000.0001) %MON extforcing_qsw_mean          =   0.0000000000000E+00
(PID.TID 0000.0001) %MON extforcing_qsw_sd            =   0.0000000000000E+00
(PID.TID 0000.0001) %MON extforcing_qsw_del2          =   0.0000000000000E+00
(PID.TID 0000.0001) %MON extforcing_empmr_max         =   8.2732094597304E-08
(PID.TID 0000.0001) %MON extforcing_empmr_min         =  -7.3643138875923E-08
(PID.TID 0000.0001) %MON extforcing_empmr_mean        =   7.9593021141906E-10
(PID.TID 0000.0001) %MON extforcing_empmr_sd          =   2.7874041013016E-08
(PID.TID 0000.0001) %MON extforcing_empmr_del2        =   3.6977851034475E-09
(PID.TID 0000.0001) %MON extforcing_fu_max            =   2.7049773434798E-01
(PID.TID 0000.0001) %MON extforcing_fu_min            =  -1.6030610948801E-01
(PID.TID 0000.0001) %MON extforcing_fu_mean           =   1.6704552877516E-02
(PID.TID 0000.0001) %MON extforcing_fu_sd             =   8.8948545252361E-02
(PID.TID 0000.0001) %MON extforcing_fu_del2           =   7.4041930423675E-03
(PID.TID 0000.0001) %MON extforcing_fv_max            =   2.0930016835531E-01
(PID.TID 0000.0001) %MON extforcing_fv_min            =  -1.5377237697442E-01
(PID.TID 0000.0001) %MON extforcing_fv_mean           =  -1.0315267776466E-02
(PID.TID 0000.0001) %MON extforcing_fv_sd             =   3.9698901611268E-02
(PID.TID 0000.0001) %MON extforcing_fv_del2           =   4.0950134493431E-03
(PID.TID 0000.0001) %MON advcfl_uvel_max              =   1.6782605351320E-02
(PID.TID 0000.0001) %MON advcfl_vvel_max              =   1.2405495149420E-02
(PID.TID 0000.0001) %MON advcfl_wvel_max              =   4.6828727718147E-02
(PID.TID 0000.0001) %MON advcfl_W_hf_max              =   6.1019251269101E-02
(PID.TID 0000.0001) %MON pe_b_mean                    =   3.5833829442921E-04
(PID.TID 0000.0001) %MON ke_max                       =   2.1510471545549E-03
(PID.TID 0000.0001) %MON ke_mean                      =   2.1922648356299E-05
(PID.TID 0000.0001) %MON ke_vol                       =   1.3226782436723E+18
(PID.TID 0000.0001) %MON vort_r_min                   =  -2.4596884029729E-07
(PID.TID 0000.0001) %MON vort_r_max                   =   2.0708999787055E-07
(PID.TID 0000.0001) %MON vort_a_mean                  =  -2.5274807204399E-05
(PID.TID 0000.0001) %MON vort_a_sd                    =   7.3604167775450E-05
(PID.TID 0000.0001) %MON vort_p_mean                  =  -3.1845655556231E-05
(PID.TID 0000.0001) %MON vort_p_sd                    =   1.3162500011769E-04
(PID.TID 0000.0001) %MON surfExpan_theta_mean         =   1.0586881917289E-05
(PID.TID 0000.0001) %MON surfExpan_salt_mean          =   4.4455648225389E-07
(PID.TID 0000.0001) // =======================================================
(PID.TID 0000.0001) // End MONITOR dynamic field statistics
(PID.TID 0000.0001) // =======================================================
(PID.TID 0000.0001) // =======================================================
(PID.TID 0000.0001) // Begin MONITOR ptracer field statistics
(PID.TID 0000.0001) // =======================================================
(PID.TID 0000.0001) %MON trcstat_ptracer01_max        =   2.5932919617398E+05
(PID.TID 0000.0001) %MON trcstat_ptracer01_min        =   4.1517289117766E+02
(PID.TID 0000.0001) %MON trcstat_ptracer01_mean       =   2.5581483487888E+05
(PID.TID 0000.0001) %MON trcstat_ptracer01_sd         =   2.9061377110304E+04
(PID.TID 0000.0001) %MON trcstat_ptracer01_del2       =   4.6770262228842E+02
(PID.TID 0000.0001) // =======================================================
(PID.TID 0000.0001) // End MONITOR ptracers field statistics
(PID.TID 0000.0001) // =======================================================
time,SST,SSS,fu,fv,Q,E-P,i0,i1,a,b =   2.5920E+05  2.3421E-01  3.4434E+01 -3.9527E-02 -6.2453E-02  2.6523E+02  1.1002E-08    12     1  6.0000E-01  4.0000E-01
time,fu0,fu1,fu =   2.5920E+05 -4.5368E-02 -3.5633E-02 -3.9527E-02  6.000000000000000E-01  4.000000000000000E-01
 cg2d: Sum(rhs),rhsMax =   1.73872867049487E-02  2.21393027670773E+00
(PID.TID 0000.0001)                    cg2d_init_res =    4.23392819818191E-01
(PID.TID 0000.0001)                       cg2d_iters =   138
(PID.TID 0000.0001)                         cg2d_res =    8.86627975906099E-14
(PID.TID 0000.0001) // =======================================================
(PID.TID 0000.0001) // Begin MONITOR dynamic field statistics
(PID.TID 0000.0001) // =======================================================
(PID.TID 0000.0001) %MON time_tsnumber                =                     4
(PID.TID 0000.0001) %MON time_secondsf                =   3.4560000000000E+05
(PID.TID 0000.0001) %MON dynstat_eta_max              =   8.7014693265131E-01
(PID.TID 0000.0001) %MON dynstat_eta_min              =  -1.6009507594420E+00
(PID.TID 0000.0001) %MON dynstat_eta_mean             =  -2.6414035451990E-04
(PID.TID 0000.0001) %MON dynstat_eta_sd               =   5.5663984930374E-01
(PID.TID 0000.0001) %MON dynstat_eta_del2             =   2.3673206363203E-02
(PID.TID 0000.0001) %MON dynstat_uvel_max             =   7.2484693911645E-02
(PID.TID 0000.0001) %MON dynstat_uvel_min             =  -6.0507941538157E-02
(PID.TID 0000.0001) %MON dynstat_uvel_mean            =  -8.6952827111480E-04
(PID.TID 0000.0001) %MON dynstat_uvel_sd              =   4.7627118533347E-03
(PID.TID 0000.0001) %MON dynstat_uvel_del2            =   1.7890026983349E-03
(PID.TID 0000.0001) %MON dynstat_vvel_max             =   6.4215993526207E-02
(PID.TID 0000.0001) %MON dynstat_vvel_min             =  -8.1499132890592E-02
(PID.TID 0000.0001) %MON dynstat_vvel_mean            =   5.6173667165735E-04
(PID.TID 0000.0001) %MON dynstat_vvel_sd              =   7.4391337241829E-03
(PID.TID 0000.0001) %MON dynstat_vvel_del2            =   2.1555341132586E-03
(PID.TID 0000.0001) %MON dynstat_wvel_max             =   1.8462207473183E-04
(PID.TID 0000.0001) %MON dynstat_wvel_min             =  -1.5775693220121E-04
(PID.TID 0000.0001) %MON dynstat_wvel_mean            =   2.4661779484095E-22
(PID.TID 0000.0001) %MON dynstat_wvel_sd              =   2.0323701485930E-05
(PID.TID 0000.0001) %MON dynstat_wvel_del2            =   8.5589129435089E-06
(PID.TID 0000.0001) %MON dynstat_theta_max            =   2.9680990886070E+01
(PID.TID 0000.0001) %MON dynstat_theta_min            =  -1.9029754813330E+00
(PID.TID 0000.0001) %MON dynstat_theta_mean           =   3.6186660155631E+00
(PID.TID 0000.0001) %MON dynstat_theta_sd             =   4.4137598688541E+00
(PID.TID 0000.0001) %MON dynstat_theta_del2           =   1.4826271442715E-01
(PID.TID 0000.0001) %MON dynstat_salt_max             =   3.7448893672452E+01
(PID.TID 0000.0001) %MON dynstat_salt_min             =   2.9758401036519E+01
(PID.TID 0000.0001) %MON dynstat_salt_mean            =   3.4717932806950E+01
(PID.TID 0000.0001) %MON dynstat_salt_sd              =   2.9609103801055E-01
(PID.TID 0000.0001) %MON dynstat_salt_del2            =   2.6342648904396E-02
(PID.TID 0000.0001) %MON extforcing_qnet_max          =   4.2903536987305E+02
(PID.TID 0000.0001) %MON extforcing_qnet_min          =  -1.8562549743652E+02
(PID.TID 0000.0001) %MON extforcing_qnet_mean         =  -1.6662669470921E+01
(PID.TID 0000.0001) %MON extforcing_qnet_sd           =   1.1221272517031E+02
(PID.TID 0000.0001) %MON extforcing_qnet_del2         =   9.4953524693249E+00
(PID.TID 0000.0001) %MON extforcing_qsw_max           =   0.0000000000000E+00
(PID.TID 0000.0001) %MON extforcing_qsw_min           =   0.0000000000000E+00
(PID.TID 0000.0001) %MON extforcing_qsw_mean          =   0.0000000000000E+00
(PID.TID 0000.0001) %MON extforcing_qsw_sd            =   0.0000000000000E+00
(PID.TID 0000.0001) %MON extforcing_qsw_del2          =   0.0000000000000E+00
(PID.TID 0000.0001) %MON extforcing_empmr_max         =   8.2476260843123E-08
(PID.TID 0000.0001) %MON extforcing_empmr_min         =  -7.3379955267683E-08
(PID.TID 0000.0001) %MON extforcing_empmr_mean        =   8.0569996916457E-10
(PID.TID 0000.0001) %MON extforcing_empmr_sd          =   2.7920083767862E-08
(PID.TID 0000.0001) %MON extforcing_empmr_del2        =   3.6964783355601E-09
(PID.TID 0000.0001) %MON extforcing_fu_max            =   2.6930242776871E-01
(PID.TID 0000.0001) %MON extforcing_fu_min            =  -1.6111952960491E-01
(PID.TID 0000.0001) %MON extforcing_fu_mean           =   1.6632868542750E-02
(PID.TID 0000.0001) %MON extforcing_fu_sd             =   8.8922493454488E-02
(PID.TID 0000.0001) %MON extforcing_fu_del2           =   7.4077656422507E-03
(PID.TID 0000.0001) %MON extforcing_fv_max            =   2.1056245863438E-01
(PID.TID 0000.0001) %MON extforcing_fv_min            =  -1.5223616063595E-01
(PID.TID 0000.0001) %MON extforcing_fv_mean           =  -1.0352666316087E-02
(PID.TID 0000.0001) %MON extforcing_fv_sd             =   3.9686589053978E-02
(PID.TID 0000.0001) %MON extforcing_fv_del2           =   4.1046624383149E-03
(PID.TID 0000.0001) %MON advcfl_uvel_max              =   2.3558864868842E-02
(PID.TID 0000.0001) %MON advcfl_vvel_max              =   1.5833974431696E-02
(PID.TID 0000.0001) %MON advcfl_wvel_max              =   5.8787497744632E-02
(PID.TID 0000.0001) %MON advcfl_W_hf_max              =   7.6601891000581E-02
(PID.TID 0000.0001) %MON pe_b_mean                    =   3.9648785211163E-04
(PID.TID 0000.0001) %MON ke_max                       =   3.8386070461053E-03
(PID.TID 0000.0001) %MON ke_mean                      =   3.5635455755507E-05
(PID.TID 0000.0001) %MON ke_vol                       =   1.3226782436723E+18
(PID.TID 0000.0001) %MON vort_r_min                   =  -2.7472906151793E-07
(PID.TID 0000.0001) %MON vort_r_max                   =   2.3326458142575E-07
(PID.TID 0000.0001) %MON vort_a_mean                  =  -2.5274807104885E-05
(PID.TID 0000.0001) %MON vort_a_sd                    =   7.3604181607125E-05
(PID.TID 0000.0001) %MON vort_p_mean                  =  -3.1845655430845E-05
(PID.TID 0000.0001) %MON vort_p_sd                    =   1.3162489105433E-04
(PID.TID 0000.0001) %MON surfExpan_theta_mean         =   3.0584619273119E-06
(PID.TID 0000.0001) %MON surfExpan_salt_mean          =  -4.7302530432000E-08
(PID.TID 0000.0001) // =======================================================
(PID.TID 0000.0001) // End MONITOR dynamic field statistics
(PID.TID 0000.0001) // =======================================================
(PID.TID 0000.0001) // =======================================================
(PID.TID 0000.0001) // Begin MONITOR ptracer field statistics
(PID.TID 0000.0001) // =======================================================
(PID.TID 0000.0001) %MON trcstat_ptracer01_max        =   3.4584233497627E+05
(PID.TID 0000.0001) %MON trcstat_ptracer01_min        =   6.6768953888850E+02
(PID.TID 0000.0001) %MON trcstat_ptracer01_mean       =   3.4108225204554E+05
(PID.TID 0000.0001) %MON trcstat_ptracer01_sd         =   3.8649265121586E+04
(PID.TID 0000.0001) %MON trcstat_ptracer01_del2       =   7.2779197567458E+02
(PID.TID 0000.0001) // =======================================================
(PID.TID 0000.0001) // End MONITOR ptracers field statistics
(PID.TID 0000.0001) // =======================================================
time,SST,SSS,fu,fv,Q,E-P,i0,i1,a,b =   3.4560E+05  2.9456E-01  3.4457E+01 -3.9202E-02 -6.2020E-02  2.6528E+02  1.1055E-08    12     1  6.3333E-01  3.6667E-01
time,fu0,fu1,fu =   3.4560E+05 -4.5368E-02 -3.5633E-02 -3.9202E-02  6.333333333333333E-01  3.666666666666667E-01
 cg2d: Sum(rhs),rhsMax =   2.41095716355768E-02  2.00812106135444E+00
(PID.TID 0000.0001)                    cg2d_init_res =    5.40773809383949E-01
(PID.TID 0000.0001)                       cg2d_iters =   138
(PID.TID 0000.0001)                         cg2d_res =    7.82549355491840E-14
(PID.TID 0000.0001) // =======================================================
(PID.TID 0000.0001) // Begin MONITOR dynamic field statistics
(PID.TID 0000.0001) // =======================================================
(PID.TID 0000.0001) %MON time_tsnumber                =                     5
(PID.TID 0000.0001) %MON time_secondsf                =   4.3200000000000E+05
(PID.TID 0000.0001) %MON dynstat_eta_max              =   8.8651036826447E-01
(PID.TID 0000.0001) %MON dynstat_eta_min              =  -1.5446604516751E+00
(PID.TID 0000.0001) %MON dynstat_eta_mean             =  -3.3221434911388E-04
(PID.TID 0000.0001) %MON dynstat_eta_sd               =   5.5563574980632E-01
(PID.TID 0000.0001) %MON dynstat_eta_del2             =   2.2732845360616E-02
(PID.TID 0000.0001) %MON dynstat_uvel_max             =   9.4454846544616E-02
(PID.TID 0000.0001) %MON dynstat_uvel_min             =  -7.1464594497104E-02
(PID.TID 0000.0001) %MON dynstat_uvel_mean            =  -7.1592955471259E-04
(PID.TID 0000.0001) %MON dynstat_uvel_sd              =   6.0910137219005E-03
(PID.TID 0000.0001) %MON dynstat_uvel_del2            =   2.0742115754851E-03
(PID.TID 0000.0001) %MON dynstat_vvel_max             =   7.5735934613831E-02
(PID.TID 0000.0001) %MON dynstat_vvel_min             =  -9.6803904010344E-02
(PID.TID 0000.0001) %MON dynstat_vvel_mean            =   2.6242044636338E-04
(PID.TID 0000.0001) %MON dynstat_vvel_sd              =   8.7633998764594E-03
(PID.TID 0000.0001) %MON dynstat_vvel_del2            =   2.5181897040755E-03
(PID.TID 0000.0001) %MON dynstat_wvel_max             =   2.1076310537246E-04
(PID.TID 0000.0001) %MON dynstat_wvel_min             =  -1.7565566705848E-04
(PID.TID 0000.0001) %MON dynstat_wvel_mean            =   3.2882372645459E-22
(PID.TID 0000.0001) %MON dynstat_wvel_sd              =   2.3300079726082E-05
(PID.TID 0000.0001) %MON dynstat_wvel_del2            =   9.6503377758201E-06
(PID.TID 0000.0001) %MON dynstat_theta_max            =   2.9675936582997E+01
(PID.TID 0000.0001) %MON dynstat_theta_min            =  -1.9034948087794E+00
(PID.TID 0000.0001) %MON dynstat_theta_mean           =   3.6187647464131E+00
(PID.TID 0000.0001) %MON dynstat_theta_sd             =   4.4138007289092E+00
(PID.TID 0000.0001) %MON dynstat_theta_del2           =   1.4655728313888E-01
(PID.TID 0000.0001) %MON dynstat_salt_max             =   3.7444546767827E+01
(PID.TID 0000.0001) %MON dynstat_salt_min             =   2.9756495415473E+01
(PID.TID 0000.0001) %MON dynstat_salt_mean            =   3.4717941157964E+01
(PID.TID 0000.0001) %MON dynstat_salt_sd              =   2.9608527808649E-01
(PID.TID 0000.0001) %MON dynstat_salt_del2            =   2.6250757643676E-02
(PID.TID 0000.0001) %MON extforcing_qnet_max          =   4.3008355712891E+02
(PID.TID 0000.0001) %MON extforcing_qnet_min          =  -1.8515833485921E+02
(PID.TID 0000.0001) %MON extforcing_qnet_mean         =  -1.6650157515098E+01
(PID.TID 0000.0001) %MON extforcing_qnet_sd           =   1.1200321531664E+02
(PID.TID 0000.0001) %MON extforcing_qnet_del2         =   9.4991829492293E+00
(PID.TID 0000.0001) %MON extforcing_qsw_max           =   0.0000000000000E+00
(PID.TID 0000.0001) %MON extforcing_qsw_min           =   0.0000000000000E+00
(PID.TID 0000.0001) %MON extforcing_qsw_mean          =   0.0000000000000E+00
(PID.TID 0000.0001) %MON extforcing_qsw_sd            =   0.0000000000000E+00
(PID.TID 0000.0001) %MON extforcing_qsw_del2          =   0.0000000000000E+00
(PID.TID 0000.0001) %MON extforcing_empmr_max         =   8.2220427088942E-08
(PID.TID 0000.0001) %MON extforcing_empmr_min         =  -7.3116771659443E-08
(PID.TID 0000.0001) %MON extforcing_empmr_mean        =   8.1546972691008E-10
(PID.TID 0000.0001) %MON extforcing_empmr_sd          =   2.7970424919056E-08
(PID.TID 0000.0001) %MON extforcing_empmr_del2        =   3.6960876781391E-09
(PID.TID 0000.0001) %MON extforcing_fu_max            =   2.6810712118944E-01
(PID.TID 0000.0001) %MON extforcing_fu_min            =  -1.6193294972181E-01
(PID.TID 0000.0001) %MON extforcing_fu_mean           =   1.6561184207984E-02
(PID.TID 0000.0001) %MON extforcing_fu_sd             =   8.8905757314605E-02
(PID.TID 0000.0001) %MON extforcing_fu_del2           =   7.4139948277460E-03
(PID.TID 0000.0001) %MON extforcing_fv_max            =   2.1244236379862E-01
(PID.TID 0000.0001) %MON extforcing_fv_min            =  -1.5122648229202E-01
(PID.TID 0000.0001) %MON extforcing_fv_mean           =  -1.0390064855707E-02
(PID.TID 0000.0001) %MON extforcing_fv_sd             =   3.9685199804211E-02
(PID.TID 0000.0001) %MON extforcing_fv_del2           =   4.1184413733790E-03
(PID.TID 0000.0001) %MON advcfl_uvel_max              =   3.0380977447018E-02
(PID.TID 0000.0001) %MON advcfl_vvel_max              =   1.8807446001246E-02
(PID.TID 0000.0001) %MON advcfl_wvel_max              =   6.8501646445731E-02
(PID.TID 0000.0001) %MON advcfl_W_hf_max              =   8.9259721126255E-02
(PID.TID 0000.0001) %MON pe_b_mean                    =   3.9505877858810E-04
(PID.TID 0000.0001) %MON ke_max                       =   5.8624713395169E-03
(PID.TID 0000.0001) %MON ke_mean                      =   5.1596692693762E-05
(PID.TID 0000.0001) %MON ke_vol                       =   1.3226782436723E+18
(PID.TID 0000.0001) %MON vort_r_min                   =  -2.6853691871414E-07
(PID.TID 0000.0001) %MON vort_r_max                   =   2.2791135070227E-07
(PID.TID 0000.0001) %MON vort_a_mean                  =  -2.5274807020098E-05
(PID.TID 0000.0001) %MON vort_a_sd                    =   7.3604212538417E-05
(PID.TID 0000.0001) %MON vort_p_mean                  =  -3.1845655324015E-05
(PID.TID 0000.0001) %MON vort_p_sd                    =   1.3162478406085E-04
(PID.TID 0000.0001) %MON surfExpan_theta_mean         =  -9.8321168747041E-07
(PID.TID 0000.0001) %MON surfExpan_salt_mean          =  -2.5381282692220E-07
(PID.TID 0000.0001) // =======================================================
(PID.TID 0000.0001) // End MONITOR dynamic field statistics
(PID.TID 0000.0001) // =======================================================
(PID.TID 0000.0001) // =======================================================
(PID.TID 0000.0001) // Begin MONITOR ptracer field statistics
(PID.TID 0000.0001) // =======================================================
(PID.TID 0000.0001) %MON trcstat_ptracer01_max        =   4.3238161852335E+05
(PID.TID 0000.0001) %MON trcstat_ptracer01_min        =   9.6766540080759E+02
(PID.TID 0000.0001) %MON trcstat_ptracer01_mean       =   4.2634622769893E+05
(PID.TID 0000.0001) %MON trcstat_ptracer01_sd         =   4.8171651081399E+04
(PID.TID 0000.0001) %MON trcstat_ptracer01_del2       =   1.0393526753964E+03
(PID.TID 0000.0001) // =======================================================
(PID.TID 0000.0001) // End MONITOR ptracers field statistics
(PID.TID 0000.0001) // =======================================================
time,SST,SSS,fu,fv,Q,E-P,i0,i1,a,b =   4.3200E+05  3.5491E-01  3.4481E+01 -3.8878E-02 -6.1587E-02  2.6532E+02  1.1107E-08    12     1  6.6667E-01  3.3333E-01
time,fu0,fu1,fu =   4.3200E+05 -4.5368E-02 -3.5633E-02 -3.8878E-02  6.666666666666666E-01  3.333333333333334E-01
 cg2d: Sum(rhs),rhsMax =   3.27555175868364E-02  1.78456932460697E+00
(PID.TID 0000.0001)                    cg2d_init_res =    6.56233458108508E-01
(PID.TID 0000.0001)                       cg2d_iters =   136
(PID.TID 0000.0001)                         cg2d_res =    9.93061557223397E-14
(PID.TID 0000.0001) // =======================================================
(PID.TID 0000.0001) // Begin MONITOR dynamic field statistics
(PID.TID 0000.0001) // =======================================================
(PID.TID 0000.0001) %MON time_tsnumber                =                     6
(PID.TID 0000.0001) %MON time_secondsf                =   5.1840000000000E+05
(PID.TID 0000.0001) %MON dynstat_eta_max              =   1.0310845216785E+00
(PID.TID 0000.0001) %MON dynstat_eta_min              =  -1.4911700112658E+00
(PID.TID 0000.0001) %MON dynstat_eta_mean             =  -4.0110390609394E-04
(PID.TID 0000.0001) %MON dynstat_eta_sd               =   5.4518208996410E-01
(PID.TID 0000.0001) %MON dynstat_eta_del2             =   2.1895437171678E-02
(PID.TID 0000.0001) %MON dynstat_uvel_max             =   1.1619050783709E-01
(PID.TID 0000.0001) %MON dynstat_uvel_min             =  -8.0021453921289E-02
(PID.TID 0000.0001) %MON dynstat_uvel_mean            =  -5.1612419503711E-04
(PID.TID 0000.0001) %MON dynstat_uvel_sd              =   7.5002803355349E-03
(PID.TID 0000.0001) %MON dynstat_uvel_del2            =   2.2977895965402E-03
(PID.TID 0000.0001) %MON dynstat_vvel_max             =   8.5474014725983E-02
(PID.TID 0000.0001) %MON dynstat_vvel_min             =  -1.0888651048023E-01
(PID.TID 0000.0001) %MON dynstat_vvel_mean            =  -8.7496195403860E-06
(PID.TID 0000.0001) %MON dynstat_vvel_sd              =   9.8033627544735E-03
(PID.TID 0000.0001) %MON dynstat_vvel_del2            =   2.7941891083201E-03
(PID.TID 0000.0001) %MON dynstat_wvel_max             =   2.2569834654479E-04
(PID.TID 0000.0001) %MON dynstat_wvel_min             =  -1.8409763401404E-04
(PID.TID 0000.0001) %MON dynstat_wvel_mean            =   8.2205931613649E-23
(PID.TID 0000.0001) %MON dynstat_wvel_sd              =   2.5300865829657E-05
(PID.TID 0000.0001) %MON dynstat_wvel_del2            =   1.0271976824195E-05
(PID.TID 0000.0001) %MON dynstat_theta_max            =   2.9674111037967E+01
(PID.TID 0000.0001) %MON dynstat_theta_min            =  -1.9037032168960E+00
(PID.TID 0000.0001) %MON dynstat_theta_mean           =   3.6189064025657E+00
(PID.TID 0000.0001) %MON dynstat_theta_sd             =   4.4139990933301E+00
(PID.TID 0000.0001) %MON dynstat_theta_del2           =   1.4486624195950E-01
(PID.TID 0000.0001) %MON dynstat_salt_max             =   3.7441071217999E+01
(PID.TID 0000.0001) %MON dynstat_salt_min             =   2.9753865831525E+01
(PID.TID 0000.0001) %MON dynstat_salt_mean            =   3.4717950286029E+01
(PID.TID 0000.0001) %MON dynstat_salt_sd              =   2.9609164260662E-01
(PID.TID 0000.0001) %MON dynstat_salt_del2            =   2.6175929969298E-02
(PID.TID 0000.0001) %MON extforcing_qnet_max          =   4.3113174438477E+02
(PID.TID 0000.0001) %MON extforcing_qnet_min          =  -1.8469117228190E+02
(PID.TID 0000.0001) %MON extforcing_qnet_mean         =  -1.6637645559275E+01
(PID.TID 0000.0001) %MON extforcing_qnet_sd           =   1.1179629855085E+02
(PID.TID 0000.0001) %MON extforcing_qnet_del2         =   9.5054858461913E+00
(PID.TID 0000.0001) %MON extforcing_qsw_max           =   0.0000000000000E+00
(PID.TID 0000.0001) %MON extforcing_qsw_min           =   0.0000000000000E+00
(PID.TID 0000.0001) %MON extforcing_qsw_mean          =   0.0000000000000E+00
(PID.TID 0000.0001) %MON extforcing_qsw_sd            =   0.0000000000000E+00
(PID.TID 0000.0001) %MON extforcing_qsw_del2          =   0.0000000000000E+00
(PID.TID 0000.0001) %MON extforcing_empmr_max         =   8.1964593334760E-08
(PID.TID 0000.0001) %MON extforcing_empmr_min         =  -7.2853588051203E-08
(PID.TID 0000.0001) %MON extforcing_empmr_mean        =   8.2523948465558E-10
(PID.TID 0000.0001) %MON extforcing_empmr_sd          =   2.8025041303087E-08
(PID.TID 0000.0001) %MON extforcing_empmr_del2        =   3.6966044987725E-09
(PID.TID 0000.0001) %MON extforcing_fu_max            =   2.6691181461016E-01
(PID.TID 0000.0001) %MON extforcing_fu_min            =  -1.6274636983871E-01
(PID.TID 0000.0001) %MON extforcing_fu_mean           =   1.6489499873218E-02
(PID.TID 0000.0001) %MON extforcing_fu_sd             =   8.8898342094053E-02
(PID.TID 0000.0001) %MON extforcing_fu_del2           =   7.4230359380623E-03
(PID.TID 0000.0001) %MON extforcing_fv_max            =   2.1432226896286E-01
(PID.TID 0000.0001) %MON extforcing_fv_min            =  -1.5172995130221E-01
(PID.TID 0000.0001) %MON extforcing_fv_mean           =  -1.0427463395328E-02
(PID.TID 0000.0001) %MON extforcing_fv_sd             =   3.9694735008861E-02
(PID.TID 0000.0001) %MON extforcing_fv_del2           =   4.1357907454315E-03
(PID.TID 0000.0001) %MON advcfl_uvel_max              =   3.6928437304302E-02
(PID.TID 0000.0001) %MON advcfl_vvel_max              =   2.1154902656634E-02
(PID.TID 0000.0001) %MON advcfl_wvel_max              =   7.5645870917215E-02
(PID.TID 0000.0001) %MON advcfl_W_hf_max              =   9.8568862104250E-02
(PID.TID 0000.0001) %MON pe_b_mean                    =   3.8033351366506E-04
(PID.TID 0000.0001) %MON ke_max                       =   8.1130878998727E-03
(PID.TID 0000.0001) %MON ke_mean                      =   6.8824354865207E-05
(PID.TID 0000.0001) %MON ke_vol                       =   1.3226782436723E+18
(PID.TID 0000.0001) %MON vort_r_min                   =  -2.6120582644894E-07
(PID.TID 0000.0001) %MON vort_r_max                   =   2.2321703490601E-07
(PID.TID 0000.0001) %MON vort_a_mean                  =  -2.5274806970334E-05
(PID.TID 0000.0001) %MON vort_a_sd                    =   7.3604251477522E-05
(PID.TID 0000.0001) %MON vort_p_mean                  =  -3.1845655261314E-05
(PID.TID 0000.0001) %MON vort_p_sd                    =   1.3162465779489E-04
(PID.TID 0000.0001) %MON surfExpan_theta_mean         =  -2.0840626067394E-06
(PID.TID 0000.0001) %MON surfExpan_salt_mean          =  -2.7318115019282E-07
(PID.TID 0000.0001) // =======================================================
(PID.TID 0000.0001) // End MONITOR dynamic field statistics
(PID.TID 0000.0001) // =======================================================
(PID.TID 0000.0001) // =======================================================
(PID.TID 0000.0001) // Begin MONITOR ptracer field statistics
(PID.TID 0000.0001) // =======================================================
(PID.TID 0000.0001) %MON trcstat_ptracer01_max        =   5.1890883284192E+05
(PID.TID 0000.0001) %MON trcstat_ptracer01_min        =   1.3082351242319E+03
(PID.TID 0000.0001) %MON trcstat_ptracer01_mean       =   5.1160580924537E+05
(PID.TID 0000.0001) %MON trcstat_ptracer01_sd         =   5.7620721844998E+04
(PID.TID 0000.0001) %MON trcstat_ptracer01_del2       =   1.4659222715044E+03
(PID.TID 0000.0001) // =======================================================
(PID.TID 0000.0001) // End MONITOR ptracers field statistics
(PID.TID 0000.0001) // =======================================================
time,SST,SSS,fu,fv,Q,E-P,i0,i1,a,b =   5.1840E+05  4.1526E-01  3.4504E+01 -3.8553E-02 -6.1154E-02  2.6537E+02  1.1160E-08    12     1  7.0000E-01  3.0000E-01
time,fu0,fu1,fu =   5.1840E+05 -4.5368E-02 -3.5633E-02 -3.8553E-02  7.000000000000000E-01  3.000000000000000E-01
 cg2d: Sum(rhs),rhsMax =   4.41756145040282E-02  1.55318496828284E+00
(PID.TID 0000.0001)                    cg2d_init_res =    7.76027432914815E-01
(PID.TID 0000.0001)                       cg2d_iters =   135
(PID.TID 0000.0001)                         cg2d_res =    9.94067351905468E-14
(PID.TID 0000.0001) // =======================================================
(PID.TID 0000.0001) // Begin MONITOR dynamic field statistics
(PID.TID 0000.0001) // =======================================================
(PID.TID 0000.0001) %MON time_tsnumber                =                     7
(PID.TID 0000.0001) %MON time_secondsf                =   6.0480000000000E+05
(PID.TID 0000.0001) %MON dynstat_eta_max              =   1.0895690987392E+00
(PID.TID 0000.0001) %MON dynstat_eta_min              =  -1.4511819682590E+00
(PID.TID 0000.0001) %MON dynstat_eta_mean             =  -4.7080902545974E-04
(PID.TID 0000.0001) %MON dynstat_eta_sd               =   5.3384409868707E-01
(PID.TID 0000.0001) %MON dynstat_eta_del2             =   2.0913389895677E-02
(PID.TID 0000.0001) %MON dynstat_uvel_max             =   1.3681443712233E-01
(PID.TID 0000.0001) %MON dynstat_uvel_min             =  -8.6041011823596E-02
(PID.TID 0000.0001) %MON dynstat_uvel_mean            =  -2.9740169853348E-04
(PID.TID 0000.0001) %MON dynstat_uvel_sd              =   8.9524351878803E-03
(PID.TID 0000.0001) %MON dynstat_uvel_del2            =   2.4678106281327E-03
(PID.TID 0000.0001) %MON dynstat_vvel_max             =   9.2468283796837E-02
(PID.TID 0000.0001) %MON dynstat_vvel_min             =  -1.1782115663604E-01
(PID.TID 0000.0001) %MON dynstat_vvel_mean            =  -2.0417177466989E-04
(PID.TID 0000.0001) %MON dynstat_vvel_sd              =   1.0541826845778E-02
(PID.TID 0000.0001) %MON dynstat_vvel_del2            =   2.9808102300680E-03
(PID.TID 0000.0001) %MON dynstat_wvel_max             =   2.3572434777587E-04
(PID.TID 0000.0001) %MON dynstat_wvel_min             =  -1.9358084363606E-04
(PID.TID 0000.0001) %MON dynstat_wvel_mean            =   3.6258687693877E-22
(PID.TID 0000.0001) %MON dynstat_wvel_sd              =   2.6313115602873E-05
(PID.TID 0000.0001) %MON dynstat_wvel_del2            =   1.0435571950297E-05
(PID.TID 0000.0001) %MON dynstat_theta_max            =   2.9672764699821E+01
(PID.TID 0000.0001) %MON dynstat_theta_min            =  -1.9039265612573E+00
(PID.TID 0000.0001) %MON dynstat_theta_mean           =   3.6190319901609E+00
(PID.TID 0000.0001) %MON dynstat_theta_sd             =   4.4141670115028E+00
(PID.TID 0000.0001) %MON dynstat_theta_del2           =   1.4327719685971E-01
(PID.TID 0000.0001) %MON dynstat_salt_max             =   3.7438348141265E+01
(PID.TID 0000.0001) %MON dynstat_salt_min             =   2.9751091438869E+01
(PID.TID 0000.0001) %MON dynstat_salt_mean            =   3.4717957305758E+01
(PID.TID 0000.0001) %MON dynstat_salt_sd              =   2.9610278342010E-01
(PID.TID 0000.0001) %MON dynstat_salt_del2            =   2.6115744282024E-02
(PID.TID 0000.0001) %MON extforcing_qnet_max          =   4.3217993164062E+02
(PID.TID 0000.0001) %MON extforcing_qnet_min          =  -1.8422400970459E+02
(PID.TID 0000.0001) %MON extforcing_qnet_mean         =  -1.6625133603452E+01
(PID.TID 0000.0001) %MON extforcing_qnet_sd           =   1.1159198929743E+02
(PID.TID 0000.0001) %MON extforcing_qnet_del2         =   9.5132681531629E+00
(PID.TID 0000.0001) %MON extforcing_qsw_max           =   0.0000000000000E+00
(PID.TID 0000.0001) %MON extforcing_qsw_min           =   0.0000000000000E+00
(PID.TID 0000.0001) %MON extforcing_qsw_mean          =   0.0000000000000E+00
(PID.TID 0000.0001) %MON extforcing_qsw_sd            =   0.0000000000000E+00
(PID.TID 0000.0001) %MON extforcing_qsw_del2          =   0.0000000000000E+00
(PID.TID 0000.0001) %MON extforcing_empmr_max         =   8.1887607450426E-08
(PID.TID 0000.0001) %MON extforcing_empmr_min         =  -7.2590404442963E-08
(PID.TID 0000.0001) %MON extforcing_empmr_mean        =   8.3500924240108E-10
(PID.TID 0000.0001) %MON extforcing_empmr_sd          =   2.8083907977094E-08
(PID.TID 0000.0001) %MON extforcing_empmr_del2        =   3.6978590861640E-09
(PID.TID 0000.0001) %MON extforcing_fu_max            =   2.6642349064350E-01
(PID.TID 0000.0001) %MON extforcing_fu_min            =  -1.6355978995562E-01
(PID.TID 0000.0001) %MON extforcing_fu_mean           =   1.6417815538452E-02
(PID.TID 0000.0001) %MON extforcing_fu_sd             =   8.8900250125222E-02
(PID.TID 0000.0001) %MON extforcing_fu_del2           =   7.4352456711408E-03
(PID.TID 0000.0001) %MON extforcing_fv_max            =   2.1620217412710E-01
(PID.TID 0000.0001) %MON extforcing_fv_min            =  -1.5223342031240E-01
(PID.TID 0000.0001) %MON extforcing_fv_mean           =  -1.0464861934948E-02
(PID.TID 0000.0001) %MON extforcing_fv_sd             =   3.9715186799383E-02
(PID.TID 0000.0001) %MON extforcing_fv_del2           =   4.1561722889942E-03
(PID.TID 0000.0001) %MON advcfl_uvel_max              =   4.2884846569289E-02
(PID.TID 0000.0001) %MON advcfl_vvel_max              =   2.2890761110212E-02
(PID.TID 0000.0001) %MON advcfl_wvel_max              =   8.0202724503795E-02
(PID.TID 0000.0001) %MON advcfl_W_hf_max              =   1.0450658041404E-01
(PID.TID 0000.0001) %MON pe_b_mean                    =   3.6467872725497E-04
(PID.TID 0000.0001) %MON ke_max                       =   1.0474529313193E-02
(PID.TID 0000.0001) %MON ke_mean                      =   8.6361661922896E-05
(PID.TID 0000.0001) %MON ke_vol                       =   1.3226782436723E+18
(PID.TID 0000.0001) %MON vort_r_min                   =  -2.7548292588850E-07
(PID.TID 0000.0001) %MON vort_r_max                   =   2.4328823674866E-07
(PID.TID 0000.0001) %MON vort_a_mean                  =  -2.5274806972088E-05
(PID.TID 0000.0001) %MON vort_a_sd                    =   7.3604291947901E-05
(PID.TID 0000.0001) %MON vort_p_mean                  =  -3.1845655263524E-05
(PID.TID 0000.0001) %MON vort_p_sd                    =   1.3162450789252E-04
(PID.TID 0000.0001) %MON surfExpan_theta_mean         =  -1.6240941661861E-06
(PID.TID 0000.0001) %MON surfExpan_salt_mean          =  -2.1478346113472E-07
(PID.TID 0000.0001) // =======================================================
(PID.TID 0000.0001) // End MONITOR dynamic field statistics
(PID.TID 0000.0001) // =======================================================
(PID.TID 0000.0001) // =======================================================
(PID.TID 0000.0001) // Begin MONITOR ptracer field statistics
(PID.TID 0000.0001) // =======================================================
(PID.TID 0000.0001) %MON trcstat_ptracer01_max        =   6.0541977527292E+05
(PID.TID 0000.0001) %MON trcstat_ptracer01_min        =   1.6852859918920E+03
(PID.TID 0000.0001) %MON trcstat_ptracer01_mean       =   5.9685945838924E+05
(PID.TID 0000.0001) %MON trcstat_ptracer01_sd         =   6.6990960602901E+04
(PID.TID 0000.0001) %MON trcstat_ptracer01_del2       =   1.8192862324948E+03
(PID.TID 0000.0001) // =======================================================
(PID.TID 0000.0001) // End MONITOR ptracers field statistics
(PID.TID 0000.0001) // =======================================================
time,SST,SSS,fu,fv,Q,E-P,i0,i1,a,b =   6.0480E+05  4.7561E-01  3.4527E+01 -3.8229E-02 -6.0721E-02  2.6541E+02  1.1213E-08    12     1  7.3333E-01  2.6667E-01
time,fu0,fu1,fu =   6.0480E+05 -4.5368E-02 -3.5633E-02 -3.8229E-02  7.333333333333333E-01  2.666666666666667E-01
 cg2d: Sum(rhs),rhsMax =   5.94057224272175E-02  1.32798930648373E+00
(PID.TID 0000.0001)                    cg2d_init_res =    9.11229265075752E-01
(PID.TID 0000.0001)                       cg2d_iters =   137
(PID.TID 0000.0001)                         cg2d_res =    9.81927539642665E-14
(PID.TID 0000.0001) // =======================================================
(PID.TID 0000.0001) // Begin MONITOR dynamic field statistics
(PID.TID 0000.0001) // =======================================================
(PID.TID 0000.0001) %MON time_tsnumber                =                     8
(PID.TID 0000.0001) %MON time_secondsf                =   6.9120000000000E+05
(PID.TID 0000.0001) %MON dynstat_eta_max              =   1.0657475041006E+00
(PID.TID 0000.0001) %MON dynstat_eta_min              =  -1.4180501896424E+00
(PID.TID 0000.0001) %MON dynstat_eta_mean             =  -5.4132970721104E-04
(PID.TID 0000.0001) %MON dynstat_eta_sd               =   5.2556506970695E-01
(PID.TID 0000.0001) %MON dynstat_eta_del2             =   1.9933695123185E-02
(PID.TID 0000.0001) %MON dynstat_uvel_max             =   1.5557758629765E-01
(PID.TID 0000.0001) %MON dynstat_uvel_min             =  -8.9478192931152E-02
(PID.TID 0000.0001) %MON dynstat_uvel_mean            =  -8.0956293154877E-05
(PID.TID 0000.0001) %MON dynstat_uvel_sd              =   1.0401863698789E-02
(PID.TID 0000.0001) %MON dynstat_uvel_del2            =   2.5938308036916E-03
(PID.TID 0000.0001) %MON dynstat_vvel_max             =   9.6675537435770E-02
(PID.TID 0000.0001) %MON dynstat_vvel_min             =  -1.2268655432426E-01
(PID.TID 0000.0001) %MON dynstat_vvel_mean            =  -3.0580057397029E-04
(PID.TID 0000.0001) %MON dynstat_vvel_sd              =   1.0979011413313E-02
(PID.TID 0000.0001) %MON dynstat_vvel_del2            =   3.0797865180193E-03
(PID.TID 0000.0001) %MON dynstat_wvel_max             =   2.3910407778466E-04
(PID.TID 0000.0001) %MON dynstat_wvel_min             =  -2.0546451661444E-04
(PID.TID 0000.0001) %MON dynstat_wvel_mean            =  -1.1897381899553E-22
(PID.TID 0000.0001) %MON dynstat_wvel_sd              =   2.6406091124313E-05
(PID.TID 0000.0001) %MON dynstat_wvel_del2            =   1.0184480478751E-05
(PID.TID 0000.0001) %MON dynstat_theta_max            =   2.9671235220069E+01
(PID.TID 0000.0001) %MON dynstat_theta_min            =  -1.9044438038876E+00
(PID.TID 0000.0001) %MON dynstat_theta_mean           =   3.6191250657570E+00
(PID.TID 0000.0001) %MON dynstat_theta_sd             =   4.4142482796512E+00
(PID.TID 0000.0001) %MON dynstat_theta_del2           =   1.4189959299858E-01
(PID.TID 0000.0001) %MON dynstat_salt_max             =   3.7436249903788E+01
(PID.TID 0000.0001) %MON dynstat_salt_min             =   2.9748704778794E+01
(PID.TID 0000.0001) %MON dynstat_salt_mean            =   3.4717961942366E+01
(PID.TID 0000.0001) %MON dynstat_salt_sd              =   2.9611685481168E-01
(PID.TID 0000.0001) %MON dynstat_salt_del2            =   2.6069162211751E-02
(PID.TID 0000.0001) %MON extforcing_qnet_max          =   4.3322811889648E+02
(PID.TID 0000.0001) %MON extforcing_qnet_min          =  -1.8375684712728E+02
(PID.TID 0000.0001) %MON extforcing_qnet_mean         =  -1.6612621647629E+01
(PID.TID 0000.0001) %MON extforcing_qnet_sd           =   1.1139030190430E+02
(PID.TID 0000.0001) %MON extforcing_qnet_del2         =   9.5233734793557E+00
(PID.TID 0000.0001) %MON extforcing_qsw_max           =   0.0000000000000E+00
(PID.TID 0000.0001) %MON extforcing_qsw_min           =   0.0000000000000E+00
(PID.TID 0000.0001) %MON extforcing_qsw_mean          =   0.0000000000000E+00
(PID.TID 0000.0001) %MON extforcing_qsw_sd            =   0.0000000000000E+00
(PID.TID 0000.0001) %MON extforcing_qsw_del2          =   0.0000000000000E+00
(PID.TID 0000.0001) %MON extforcing_empmr_max         =   8.1889273909989E-08
(PID.TID 0000.0001) %MON extforcing_empmr_min         =  -7.2333472189712E-08
(PID.TID 0000.0001) %MON extforcing_empmr_mean        =   8.4477900014659E-10
(PID.TID 0000.0001) %MON extforcing_empmr_sd          =   2.8146998273902E-08
(PID.TID 0000.0001) %MON extforcing_empmr_del2        =   3.6997473944248E-09
(PID.TID 0000.0001) %MON extforcing_fu_max            =   2.6594546834628E-01
(PID.TID 0000.0001) %MON extforcing_fu_min            =  -1.6437321007252E-01
(PID.TID 0000.0001) %MON extforcing_fu_mean           =   1.6346131203686E-02
(PID.TID 0000.0001) %MON extforcing_fu_sd             =   8.8911480807882E-02
(PID.TID 0000.0001) %MON extforcing_fu_del2           =   7.4518923958713E-03
(PID.TID 0000.0001) %MON extforcing_fv_max            =   2.1808207929134E-01
(PID.TID 0000.0001) %MON extforcing_fv_min            =  -1.5273688932260E-01
(PID.TID 0000.0001) %MON extforcing_fv_mean           =  -1.0502260474569E-02
(PID.TID 0000.0001) %MON extforcing_fv_sd             =   3.9746538324220E-02
(PID.TID 0000.0001) %MON extforcing_fv_del2           =   4.1808051677107E-03
(PID.TID 0000.0001) %MON advcfl_uvel_max              =   4.7961925088864E-02
(PID.TID 0000.0001) %MON advcfl_vvel_max              =   2.3836029849435E-02
(PID.TID 0000.0001) %MON advcfl_wvel_max              =   8.2115618097768E-02
(PID.TID 0000.0001) %MON advcfl_W_hf_max              =   1.0699913873345E-01
(PID.TID 0000.0001) %MON pe_b_mean                    =   3.5345542146590E-04
(PID.TID 0000.0001) %MON ke_max                       =   1.2829927766794E-02
(PID.TID 0000.0001) %MON ke_mean                      =   1.0331640107537E-04
(PID.TID 0000.0001) %MON ke_vol                       =   1.3226782436723E+18
(PID.TID 0000.0001) %MON vort_r_min                   =  -3.1443063722269E-07
(PID.TID 0000.0001) %MON vort_r_max                   =   2.5654246162401E-07
(PID.TID 0000.0001) %MON vort_a_mean                  =  -2.5274807022555E-05
(PID.TID 0000.0001) %MON vort_a_sd                    =   7.3604329074409E-05
(PID.TID 0000.0001) %MON vort_p_mean                  =  -3.1845655327111E-05
(PID.TID 0000.0001) %MON vort_p_sd                    =   1.3162433597376E-04
(PID.TID 0000.0001) %MON surfExpan_theta_mean         =  -7.4955675480114E-07
(PID.TID 0000.0001) %MON surfExpan_salt_mean          =  -1.4789455475880E-07
(PID.TID 0000.0001) // =======================================================
(PID.TID 0000.0001) // End MONITOR dynamic field statistics
(PID.TID 0000.0001) // =======================================================
(PID.TID 0000.0001) // =======================================================
(PID.TID 0000.0001) // Begin MONITOR ptracer field statistics
(PID.TID 0000.0001) // =======================================================
(PID.TID 0000.0001) %MON trcstat_ptracer01_max        =   6.9191505466298E+05
(PID.TID 0000.0001) %MON trcstat_ptracer01_min        =   2.0938769077604E+03
(PID.TID 0000.0001) %MON trcstat_ptracer01_mean       =   6.8210564543086E+05
(PID.TID 0000.0001) %MON trcstat_ptracer01_sd         =   7.6362400556909E+04
(PID.TID 0000.0001) %MON trcstat_ptracer01_del2       =   2.1909162144088E+03
(PID.TID 0000.0001) // =======================================================
(PID.TID 0000.0001) // End MONITOR ptracers field statistics
(PID.TID 0000.0001) // =======================================================
time,SST,SSS,fu,fv,Q,E-P,i0,i1,a,b =   6.9120E+05  5.3596E-01  3.4551E+01 -3.7904E-02 -6.0288E-02  2.6546E+02  1.1266E-08    12     1  7.6667E-01  2.3333E-01
time,fu0,fu1,fu =   6.9120E+05 -4.5368E-02 -3.5633E-02 -3.7904E-02  7.666666666666667E-01  2.333333333333333E-01
 cg2d: Sum(rhs),rhsMax =   7.79128543690897E-02  1.14597628035776E+00
(PID.TID 0000.0001)                    cg2d_init_res =    1.02463098826688E+00
(PID.TID 0000.0001)                       cg2d_iters =   137
(PID.TID 0000.0001)                         cg2d_res =    8.71790759894176E-14
(PID.TID 0000.0001) // =======================================================
(PID.TID 0000.0001) // Begin MONITOR dynamic field statistics
(PID.TID 0000.0001) // =======================================================
(PID.TID 0000.0001) %MON time_tsnumber                =                     9
(PID.TID 0000.0001) %MON time_secondsf                =   7.7760000000000E+05
(PID.TID 0000.0001) %MON dynstat_eta_max              =   9.8294811013658E-01
(PID.TID 0000.0001) %MON dynstat_eta_min              =  -1.3882363208150E+00
(PID.TID 0000.0001) %MON dynstat_eta_mean             =  -6.1266595134819E-04
(PID.TID 0000.0001) %MON dynstat_eta_sd               =   5.2225333708313E-01
(PID.TID 0000.0001) %MON dynstat_eta_del2             =   1.9069266816045E-02
(PID.TID 0000.0001) %MON dynstat_uvel_max             =   1.7183570668099E-01
(PID.TID 0000.0001) %MON dynstat_uvel_min             =  -9.0335037640127E-02
(PID.TID 0000.0001) %MON dynstat_uvel_mean            =   1.1688261113795E-04
(PID.TID 0000.0001) %MON dynstat_uvel_sd              =   1.1800872747821E-02
(PID.TID 0000.0001) %MON dynstat_uvel_del2            =   2.6872360112075E-03
(PID.TID 0000.0001) %MON dynstat_vvel_max             =   9.8119853760840E-02
(PID.TID 0000.0001) %MON dynstat_vvel_min             =  -1.2629454201563E-01
(PID.TID 0000.0001) %MON dynstat_vvel_mean            =  -3.2170505920189E-04
(PID.TID 0000.0001) %MON dynstat_vvel_sd              =   1.1131485643812E-02
(PID.TID 0000.0001) %MON dynstat_vvel_del2            =   3.0984172970640E-03
(PID.TID 0000.0001) %MON dynstat_wvel_max             =   2.3472650084913E-04
(PID.TID 0000.0001) %MON dynstat_wvel_min             =  -2.1137136387680E-04
(PID.TID 0000.0001) %MON dynstat_wvel_mean            =  -3.8717525826964E-23
(PID.TID 0000.0001) %MON dynstat_wvel_sd              =   2.5718468896086E-05
(PID.TID 0000.0001) %MON dynstat_wvel_del2            =   9.5948784806860E-06
(PID.TID 0000.0001) %MON dynstat_theta_max            =   2.9669853837009E+01
(PID.TID 0000.0001) %MON dynstat_theta_min            =  -1.9062572826117E+00
(PID.TID 0000.0001) %MON dynstat_theta_mean           =   3.6191918347675E+00
(PID.TID 0000.0001) %MON dynstat_theta_sd             =   4.4142613835013E+00
(PID.TID 0000.0001) %MON dynstat_theta_del2           =   1.4073387380286E-01
(PID.TID 0000.0001) %MON dynstat_salt_max             =   3.7434655586377E+01
(PID.TID 0000.0001) %MON dynstat_salt_min             =   2.9747060142518E+01
(PID.TID 0000.0001) %MON dynstat_salt_mean            =   3.4717964933557E+01
(PID.TID 0000.0001) %MON dynstat_salt_sd              =   2.9613175958263E-01
(PID.TID 0000.0001) %MON dynstat_salt_del2            =   2.6038445641253E-02
(PID.TID 0000.0001) %MON extforcing_qnet_max          =   4.3427630615234E+02
(PID.TID 0000.0001) %MON extforcing_qnet_min          =  -1.8328968454997E+02
(PID.TID 0000.0001) %MON extforcing_qnet_mean         =  -1.6600109691806E+01
(PID.TID 0000.0001) %MON extforcing_qnet_sd           =   1.1119125063866E+02
(PID.TID 0000.0001) %MON extforcing_qnet_del2         =   9.5355422152042E+00
(PID.TID 0000.0001) %MON extforcing_qsw_max           =   0.0000000000000E+00
(PID.TID 0000.0001) %MON extforcing_qsw_min           =   0.0000000000000E+00
(PID.TID 0000.0001) %MON extforcing_qsw_mean          =   0.0000000000000E+00
(PID.TID 0000.0001) %MON extforcing_qsw_sd            =   0.0000000000000E+00
(PID.TID 0000.0001) %MON extforcing_qsw_del2          =   0.0000000000000E+00
(PID.TID 0000.0001) %MON extforcing_empmr_max         =   8.1890940369552E-08
(PID.TID 0000.0001) %MON extforcing_empmr_min         =  -7.2715819499081E-08
(PID.TID 0000.0001) %MON extforcing_empmr_mean        =   8.5454875789210E-10
(PID.TID 0000.0001) %MON extforcing_empmr_sd          =   2.8214283860046E-08
(PID.TID 0000.0001) %MON extforcing_empmr_del2        =   3.7026026361079E-09
(PID.TID 0000.0001) %MON extforcing_fu_max            =   2.6546744604905E-01
(PID.TID 0000.0001) %MON extforcing_fu_min            =  -1.6518663018942E-01
(PID.TID 0000.0001) %MON extforcing_fu_mean           =   1.6274446868920E-02
(PID.TID 0000.0001) %MON extforcing_fu_sd             =   8.8932030610134E-02
(PID.TID 0000.0001) %MON extforcing_fu_del2           =   7.4728238935330E-03
(PID.TID 0000.0001) %MON extforcing_fv_max            =   2.1996198445559E-01
(PID.TID 0000.0001) %MON extforcing_fv_min            =  -1.5324035833279E-01
(PID.TID 0000.0001) %MON extforcing_fv_mean           =  -1.0539659014190E-02
(PID.TID 0000.0001) %MON extforcing_fv_sd             =   3.9788763818070E-02
(PID.TID 0000.0001) %MON extforcing_fv_del2           =   4.2098784983186E-03
(PID.TID 0000.0001) %MON advcfl_uvel_max              =   5.1931694333017E-02
(PID.TID 0000.0001) %MON advcfl_vvel_max              =   2.4537003992703E-02
(PID.TID 0000.0001) %MON advcfl_wvel_max              =   8.1538299254516E-02
(PID.TID 0000.0001) %MON advcfl_W_hf_max              =   1.0624687478619E-01
(PID.TID 0000.0001) %MON pe_b_mean                    =   3.4901512275930E-04
(PID.TID 0000.0001) %MON ke_max                       =   1.5070764115117E-02
(PID.TID 0000.0001) %MON ke_mean                      =   1.1894948557060E-04
(PID.TID 0000.0001) %MON ke_vol                       =   1.3226782436723E+18
(PID.TID 0000.0001) %MON vort_r_min                   =  -3.5986943994086E-07
(PID.TID 0000.0001) %MON vort_r_max                   =   2.7840340635296E-07
(PID.TID 0000.0001) %MON vort_a_mean                  =  -2.5274807102683E-05
(PID.TID 0000.0001) %MON vort_a_sd                    =   7.3604359615835E-05
(PID.TID 0000.0001) %MON vort_p_mean                  =  -3.1845655428071E-05
(PID.TID 0000.0001) %MON vort_p_sd                    =   1.3162414817851E-04
(PID.TID 0000.0001) %MON surfExpan_theta_mean         =  -5.6010925946558E-08
(PID.TID 0000.0001) %MON surfExpan_salt_mean          =  -1.0108557126944E-07
(PID.TID 0000.0001) // =======================================================
(PID.TID 0000.0001) // End MONITOR dynamic field statistics
(PID.TID 0000.0001) // =======================================================
(PID.TID 0000.0001) // =======================================================
(PID.TID 0000.0001) // Begin MONITOR ptracer field statistics
(PID.TID 0000.0001) // =======================================================
(PID.TID 0000.0001) %MON trcstat_ptracer01_max        =   7.7851802830631E+05
(PID.TID 0000.0001) %MON trcstat_ptracer01_min        =   2.5284134027249E+03
(PID.TID 0000.0001) %MON trcstat_ptracer01_mean       =   7.6734390236559E+05
(PID.TID 0000.0001) %MON trcstat_ptracer01_sd         =   8.5735556589881E+04
(PID.TID 0000.0001) %MON trcstat_ptracer01_del2       =   2.4998068654081E+03
(PID.TID 0000.0001) // =======================================================
(PID.TID 0000.0001) // End MONITOR ptracers field statistics
(PID.TID 0000.0001) // =======================================================
time,SST,SSS,fu,fv,Q,E-P,i0,i1,a,b =   7.7760E+05  5.9632E-01  3.4574E+01 -3.7580E-02 -5.9855E-02  2.6550E+02  1.1319E-08    12     1  8.0000E-01  2.0000E-01
time,fu0,fu1,fu =   7.7760E+05 -4.5368E-02 -3.5633E-02 -3.7580E-02  8.000000000000000E-01  2.000000000000000E-01
 cg2d: Sum(rhs),rhsMax =   9.29583818539736E-02  1.07361224631721E+00
(PID.TID 0000.0001)                    cg2d_init_res =    1.02925806803236E+00
(PID.TID 0000.0001)                       cg2d_iters =   137
(PID.TID 0000.0001)                         cg2d_res =    8.19156886018010E-14
(PID.TID 0000.0001) // =======================================================
(PID.TID 0000.0001) // Begin MONITOR dynamic field statistics
(PID.TID 0000.0001) // =======================================================
(PID.TID 0000.0001) %MON time_tsnumber                =                    10
(PID.TID 0000.0001) %MON time_secondsf                =   8.6400000000000E+05
(PID.TID 0000.0001) %MON dynstat_eta_max              =   8.7337236138363E-01
(PID.TID 0000.0001) %MON dynstat_eta_min              =  -1.3627662109535E+00
(PID.TID 0000.0001) %MON dynstat_eta_mean             =  -6.8481775787094E-04
(PID.TID 0000.0001) %MON dynstat_eta_sd               =   5.2418520900321E-01
(PID.TID 0000.0001) %MON dynstat_eta_del2             =   1.8343178861231E-02
(PID.TID 0000.0001) %MON dynstat_uvel_max             =   1.8504577695713E-01
(PID.TID 0000.0001) %MON dynstat_uvel_min             =  -8.8655674803245E-02
(PID.TID 0000.0001) %MON dynstat_uvel_mean            =   2.8631744483586E-04
(PID.TID 0000.0001) %MON dynstat_uvel_sd              =   1.3103164307932E-02
(PID.TID 0000.0001) %MON dynstat_uvel_del2            =   2.7597513786523E-03
(PID.TID 0000.0001) %MON dynstat_vvel_max             =   9.9879733874943E-02
(PID.TID 0000.0001) %MON dynstat_vvel_min             =  -1.2623240609814E-01
(PID.TID 0000.0001) %MON dynstat_vvel_mean            =  -2.7565040925777E-04
(PID.TID 0000.0001) %MON dynstat_vvel_sd              =   1.1035282339389E-02
(PID.TID 0000.0001) %MON dynstat_vvel_del2            =   3.0524953068992E-03
(PID.TID 0000.0001) %MON dynstat_wvel_max             =   2.2339844474641E-04
(PID.TID 0000.0001) %MON dynstat_wvel_min             =  -2.1104049304669E-04
(PID.TID 0000.0001) %MON dynstat_wvel_mean            =   4.1176363960051E-22
(PID.TID 0000.0001) %MON dynstat_wvel_sd              =   2.4447888288032E-05
(PID.TID 0000.0001) %MON dynstat_wvel_del2            =   8.7773318165515E-06
(PID.TID 0000.0001) %MON dynstat_theta_max            =   2.9669032389449E+01
(PID.TID 0000.0001) %MON dynstat_theta_min            =  -1.9113774737353E+00
(PID.TID 0000.0001) %MON dynstat_theta_mean           =   3.6192447952294E+00
(PID.TID 0000.0001) %MON dynstat_theta_sd             =   4.4142438245428E+00
(PID.TID 0000.0001) %MON dynstat_theta_del2           =   1.3979374187490E-01
(PID.TID 0000.0001) %MON dynstat_salt_max             =   3.7434465546651E+01
(PID.TID 0000.0001) %MON dynstat_salt_min             =   2.9746285727604E+01
(PID.TID 0000.0001) %MON dynstat_salt_mean            =   3.4717967133318E+01
(PID.TID 0000.0001) %MON dynstat_salt_sd              =   2.9614515895478E-01
(PID.TID 0000.0001) %MON dynstat_salt_del2            =   2.6020140557506E-02
(PID.TID 0000.0001) %MON extforcing_qnet_max          =   4.3532449340820E+02
(PID.TID 0000.0001) %MON extforcing_qnet_min          =  -1.8282252197266E+02
(PID.TID 0000.0001) %MON extforcing_qnet_mean         =  -1.6587597735982E+01
(PID.TID 0000.0001) %MON extforcing_qnet_sd           =   1.1099484968291E+02
(PID.TID 0000.0001) %MON extforcing_qnet_del2         =   9.5493322704987E+00
(PID.TID 0000.0001) %MON extforcing_qsw_max           =   0.0000000000000E+00
(PID.TID 0000.0001) %MON extforcing_qsw_min           =   0.0000000000000E+00
(PID.TID 0000.0001) %MON extforcing_qsw_mean          =   0.0000000000000E+00
(PID.TID 0000.0001) %MON extforcing_qsw_sd            =   0.0000000000000E+00
(PID.TID 0000.0001) %MON extforcing_qsw_del2          =   0.0000000000000E+00
(PID.TID 0000.0001) %MON extforcing_empmr_max         =   8.1892606829115E-08
(PID.TID 0000.0001) %MON extforcing_empmr_min         =  -7.3098166808450E-08
(PID.TID 0000.0001) %MON extforcing_empmr_mean        =   8.6431851563760E-10
(PID.TID 0000.0001) %MON extforcing_empmr_sd          =   2.8285734796509E-08
(PID.TID 0000.0001) %MON extforcing_empmr_del2        =   3.7064441890224E-09
(PID.TID 0000.0001) %MON extforcing_fu_max            =   2.6498942375183E-01
(PID.TID 0000.0001) %MON extforcing_fu_min            =  -1.6600005030632E-01
(PID.TID 0000.0001) %MON extforcing_fu_mean           =   1.6202762534154E-02
(PID.TID 0000.0001) %MON extforcing_fu_sd             =   8.8961893073950E-02
(PID.TID 0000.0001) %MON extforcing_fu_del2           =   7.4965887740889E-03
(PID.TID 0000.0001) %MON extforcing_fv_max            =   2.2184188961983E-01
(PID.TID 0000.0001) %MON extforcing_fv_min            =  -1.5380035936832E-01
(PID.TID 0000.0001) %MON extforcing_fv_mean           =  -1.0577057553810E-02
(PID.TID 0000.0001) %MON extforcing_fv_sd             =   3.9841828707331E-02
(PID.TID 0000.0001) %MON extforcing_fv_del2           =   4.2435463278719E-03
(PID.TID 0000.0001) %MON advcfl_uvel_max              =   5.4641459743015E-02
(PID.TID 0000.0001) %MON advcfl_vvel_max              =   2.4524931980475E-02
(PID.TID 0000.0001) %MON advcfl_wvel_max              =   7.8707603108256E-02
(PID.TID 0000.0001) %MON advcfl_W_hf_max              =   1.0255839192894E-01
(PID.TID 0000.0001) %MON pe_b_mean                    =   3.5160210453815E-04
(PID.TID 0000.0001) %MON ke_max                       =   1.7102474114280E-02
(PID.TID 0000.0001) %MON ke_mean                      =   1.3274528413402E-04
(PID.TID 0000.0001) %MON ke_vol                       =   1.3226782436723E+18
(PID.TID 0000.0001) %MON vort_r_min                   =  -3.9814213582094E-07
(PID.TID 0000.0001) %MON vort_r_max                   =   3.0409676760296E-07
(PID.TID 0000.0001) %MON vort_a_mean                  =  -2.5274807182433E-05
(PID.TID 0000.0001) %MON vort_a_sd                    =   7.3604382243554E-05
(PID.TID 0000.0001) %MON vort_p_mean                  =  -3.1845655528554E-05
(PID.TID 0000.0001) %MON vort_p_sd                    =   1.3162395484987E-04
(PID.TID 0000.0001) %MON surfExpan_theta_mean         =   3.1119175567639E-07
(PID.TID 0000.0001) %MON surfExpan_salt_mean          =  -7.7503592243763E-08
(PID.TID 0000.0001) // =======================================================
(PID.TID 0000.0001) // End MONITOR dynamic field statistics
(PID.TID 0000.0001) // =======================================================
(PID.TID 0000.0001) // Time-average data written, t-step        10
(PID.TID 0000.0001) 
(PID.TID 0000.0001) // PTRACER time-average data written, t-step        10
(PID.TID 0000.0001) 
(PID.TID 0000.0001) // =======================================================
(PID.TID 0000.0001) // Begin MONITOR ptracer field statistics
(PID.TID 0000.0001) // =======================================================
(PID.TID 0000.0001) %MON trcstat_ptracer01_max        =   8.6524955473943E+05
(PID.TID 0000.0001) %MON trcstat_ptracer01_min        =   2.9864942150402E+03
(PID.TID 0000.0001) %MON trcstat_ptracer01_mean       =   8.5257434684779E+05
(PID.TID 0000.0001) %MON trcstat_ptracer01_sd         =   9.5103838349744E+04
(PID.TID 0000.0001) %MON trcstat_ptracer01_del2       =   2.8237983645164E+03
(PID.TID 0000.0001) // =======================================================
(PID.TID 0000.0001) // End MONITOR ptracers field statistics
(PID.TID 0000.0001) // =======================================================
time,SST,SSS,fu,fv,Q,E-P,i0,i1,a,b =   8.6400E+05  6.5667E-01  3.4598E+01 -3.7255E-02 -5.9422E-02  2.6555E+02  1.1372E-08    12     1  8.3333E-01  1.6667E-01
time,fu0,fu1,fu =   8.6400E+05 -4.5368E-02 -3.5633E-02 -3.7255E-02  8.333333333333334E-01  1.666666666666666E-01
 cg2d: Sum(rhs),rhsMax =   1.07844844354714E-01  1.02401822851264E+00
(PID.TID 0000.0001)                    cg2d_init_res =    9.91554591417151E-01
(PID.TID 0000.0001)                       cg2d_iters =   137
(PID.TID 0000.0001)                         cg2d_res =    7.80110075986286E-14
(PID.TID 0000.0001) // =======================================================
(PID.TID 0000.0001) // Begin MONITOR dynamic field statistics
(PID.TID 0000.0001) // =======================================================
(PID.TID 0000.0001) %MON time_tsnumber                =                    11
(PID.TID 0000.0001) %MON time_secondsf                =   9.5040000000000E+05
(PID.TID 0000.0001) %MON dynstat_eta_max              =   7.7679332197964E-01
(PID.TID 0000.0001) %MON dynstat_eta_min              =  -1.3528789171668E+00
(PID.TID 0000.0001) %MON dynstat_eta_mean             =  -7.5778512677921E-04
(PID.TID 0000.0001) %MON dynstat_eta_sd               =   5.3036123206306E-01
(PID.TID 0000.0001) %MON dynstat_eta_del2             =   1.7755653390019E-02
(PID.TID 0000.0001) %MON dynstat_uvel_max             =   1.9477501998404E-01
(PID.TID 0000.0001) %MON dynstat_uvel_min             =  -9.2747226994848E-02
(PID.TID 0000.0001) %MON dynstat_uvel_mean            =   4.2503306613760E-04
(PID.TID 0000.0001) %MON dynstat_uvel_sd              =   1.4266169069527E-02
(PID.TID 0000.0001) %MON dynstat_uvel_del2            =   2.8215018043463E-03
(PID.TID 0000.0001) %MON dynstat_vvel_max             =   1.0176530533472E-01
(PID.TID 0000.0001) %MON dynstat_vvel_min             =  -1.2246479434737E-01
(PID.TID 0000.0001) %MON dynstat_vvel_mean            =  -1.9583176616048E-04
(PID.TID 0000.0001) %MON dynstat_vvel_sd              =   1.0747000881503E-02
(PID.TID 0000.0001) %MON dynstat_vvel_del2            =   2.9611524645417E-03
(PID.TID 0000.0001) %MON dynstat_wvel_max             =   2.1221399656935E-04
(PID.TID 0000.0001) %MON dynstat_wvel_min             =  -2.0462900988272E-04
(PID.TID 0000.0001) %MON dynstat_wvel_mean            =   9.3949636129884E-23
(PID.TID 0000.0001) %MON dynstat_wvel_sd              =   2.2842071993825E-05
(PID.TID 0000.0001) %MON dynstat_wvel_del2            =   7.8716102924469E-06
(PID.TID 0000.0001) %MON dynstat_theta_max            =   2.9668930353109E+01
(PID.TID 0000.0001) %MON dynstat_theta_min            =  -1.9120984322368E+00
(PID.TID 0000.0001) %MON dynstat_theta_mean           =   3.6192934174111E+00
(PID.TID 0000.0001) %MON dynstat_theta_sd             =   4.4142232083618E+00
(PID.TID 0000.0001) %MON dynstat_theta_del2           =   1.3906532588572E-01
(PID.TID 0000.0001) %MON dynstat_salt_max             =   3.7435260718495E+01
(PID.TID 0000.0001) %MON dynstat_salt_min             =   2.9746332519275E+01
(PID.TID 0000.0001) %MON dynstat_salt_mean            =   3.4717969110518E+01
(PID.TID 0000.0001) %MON dynstat_salt_sd              =   2.9615605809409E-01
(PID.TID 0000.0001) %MON dynstat_salt_del2            =   2.6013580438176E-02
(PID.TID 0000.0001) %MON extforcing_qnet_max          =   4.3637268066406E+02
(PID.TID 0000.0001) %MON extforcing_qnet_min          =  -1.8235535939535E+02
(PID.TID 0000.0001) %MON extforcing_qnet_mean         =  -1.6575085780159E+01
(PID.TID 0000.0001) %MON extforcing_qnet_sd           =   1.1080111313050E+02
(PID.TID 0000.0001) %MON extforcing_qnet_del2         =   9.5645523805341E+00
(PID.TID 0000.0001) %MON extforcing_qsw_max           =   0.0000000000000E+00
(PID.TID 0000.0001) %MON extforcing_qsw_min           =   0.0000000000000E+00
(PID.TID 0000.0001) %MON extforcing_qsw_mean          =   0.0000000000000E+00
(PID.TID 0000.0001) %MON extforcing_qsw_sd            =   0.0000000000000E+00
(PID.TID 0000.0001) %MON extforcing_qsw_del2          =   0.0000000000000E+00
(PID.TID 0000.0001) %MON extforcing_empmr_max         =   8.1894273288678E-08
(PID.TID 0000.0001) %MON extforcing_empmr_min         =  -7.3480514117819E-08
(PID.TID 0000.0001) %MON extforcing_empmr_mean        =   8.7408827338311E-10
(PID.TID 0000.0001) %MON extforcing_empmr_sd          =   2.8361319601892E-08
(PID.TID 0000.0001) %MON extforcing_empmr_del2        =   3.7114471432806E-09
(PID.TID 0000.0001) %MON extforcing_fu_max            =   2.6451140145461E-01
(PID.TID 0000.0001) %MON extforcing_fu_min            =  -1.6681347042322E-01
(PID.TID 0000.0001) %MON extforcing_fu_mean           =   1.6131078199388E-02
(PID.TID 0000.0001) %MON extforcing_fu_sd             =   8.9001058825318E-02
(PID.TID 0000.0001) %MON extforcing_fu_del2           =   7.5252303405268E-03
(PID.TID 0000.0001) %MON extforcing_fv_max            =   2.2372179478407E-01
(PID.TID 0000.0001) %MON extforcing_fv_min            =  -1.5677401175102E-01
(PID.TID 0000.0001) %MON extforcing_fv_mean           =  -1.0614456093431E-02
(PID.TID 0000.0001) %MON extforcing_fv_sd             =   3.9905689750725E-02
(PID.TID 0000.0001) %MON extforcing_fv_del2           =   4.2812660316744E-03
(PID.TID 0000.0001) %MON advcfl_uvel_max              =   5.7065094839820E-02
(PID.TID 0000.0001) %MON advcfl_vvel_max              =   2.3792945442529E-02
(PID.TID 0000.0001) %MON advcfl_wvel_max              =   7.3915903287952E-02
(PID.TID 0000.0001) %MON advcfl_W_hf_max              =   9.6314661860059E-02
(PID.TID 0000.0001) %MON pe_b_mean                    =   3.5993628381811E-04
(PID.TID 0000.0001) %MON ke_max                       =   1.8846325278789E-02
(PID.TID 0000.0001) %MON ke_mean                      =   1.4441526080893E-04
(PID.TID 0000.0001) %MON ke_vol                       =   1.3226782436723E+18
(PID.TID 0000.0001) %MON vort_r_min                   =  -4.2757608113927E-07
(PID.TID 0000.0001) %MON vort_r_max                   =   3.3374243480036E-07
(PID.TID 0000.0001) %MON vort_a_mean                  =  -2.5274807233652E-05
(PID.TID 0000.0001) %MON vort_a_sd                    =   7.3604397452796E-05
(PID.TID 0000.0001) %MON vort_p_mean                  =  -3.1845655593089E-05
(PID.TID 0000.0001) %MON vort_p_sd                    =   1.3162377075137E-04
(PID.TID 0000.0001) %MON surfExpan_theta_mean         =   4.3612957126044E-07
(PID.TID 0000.0001) %MON surfExpan_salt_mean          =  -6.8821466994815E-08
(PID.TID 0000.0001) // =======================================================
(PID.TID 0000.0001) // End MONITOR dynamic field statistics
(PID.TID 0000.0001) // =======================================================
(PID.TID 0000.0001) // =======================================================
(PID.TID 0000.0001) // Begin MONITOR ptracer field statistics
(PID.TID 0000.0001) // =======================================================
(PID.TID 0000.0001) %MON trcstat_ptracer01_max        =   9.5196650914202E+05
(PID.TID 0000.0001) %MON trcstat_ptracer01_min        =   3.4654394656706E+03
(PID.TID 0000.0001) %MON trcstat_ptracer01_mean       =   9.3779671591654E+05
(PID.TID 0000.0001) %MON trcstat_ptracer01_sd         =   1.0443709630651E+05
(PID.TID 0000.0001) %MON trcstat_ptracer01_del2       =   3.1811112673826E+03
(PID.TID 0000.0001) // =======================================================
(PID.TID 0000.0001) // End MONITOR ptracers field statistics
(PID.TID 0000.0001) // =======================================================
time,SST,SSS,fu,fv,Q,E-P,i0,i1,a,b =   9.5040E+05  7.1702E-01  3.4621E+01 -3.6931E-02 -5.8989E-02  2.6559E+02  1.1425E-08    12     1  8.6667E-01  1.3333E-01
time,fu0,fu1,fu =   9.5040E+05 -4.5368E-02 -3.5633E-02 -3.6931E-02  8.666666666666667E-01  1.333333333333333E-01
 cg2d: Sum(rhs),rhsMax =   1.21346864658189E-01  9.98688934613699E-01
(PID.TID 0000.0001)                    cg2d_init_res =    9.20770227963021E-01
(PID.TID 0000.0001)                       cg2d_iters =   136
(PID.TID 0000.0001)                         cg2d_res =    9.22837006233360E-14
(PID.TID 0000.0001) // =======================================================
(PID.TID 0000.0001) // Begin MONITOR dynamic field statistics
(PID.TID 0000.0001) // =======================================================
(PID.TID 0000.0001) %MON time_tsnumber                =                    12
(PID.TID 0000.0001) %MON time_secondsf                =   1.0368000000000E+06
(PID.TID 0000.0001) %MON dynstat_eta_max              =   7.4451860681690E-01
(PID.TID 0000.0001) %MON dynstat_eta_min              =  -1.3714155987837E+00
(PID.TID 0000.0001) %MON dynstat_eta_mean             =  -8.3156805807363E-04
(PID.TID 0000.0001) %MON dynstat_eta_sd               =   5.3915799619704E-01
(PID.TID 0000.0001) %MON dynstat_eta_del2             =   1.7355321617529E-02
(PID.TID 0000.0001) %MON dynstat_uvel_max             =   2.0071414818982E-01
(PID.TID 0000.0001) %MON dynstat_uvel_min             =  -9.7984437385018E-02
(PID.TID 0000.0001) %MON dynstat_uvel_mean            =   5.3743487416827E-04
(PID.TID 0000.0001) %MON dynstat_uvel_sd              =   1.5252825121330E-02
(PID.TID 0000.0001) %MON dynstat_uvel_del2            =   2.8784125289655E-03
(PID.TID 0000.0001) %MON dynstat_vvel_max             =   1.0519676512446E-01
(PID.TID 0000.0001) %MON dynstat_vvel_min             =  -1.1517846374671E-01
(PID.TID 0000.0001) %MON dynstat_vvel_mean            =  -1.0690176651487E-04
(PID.TID 0000.0001) %MON dynstat_vvel_sd              =   1.0342360557216E-02
(PID.TID 0000.0001) %MON dynstat_vvel_del2            =   2.8483691775181E-03
(PID.TID 0000.0001) %MON dynstat_wvel_max             =   1.9931752287486E-04
(PID.TID 0000.0001) %MON dynstat_wvel_min             =  -1.9261369724764E-04
(PID.TID 0000.0001) %MON dynstat_wvel_mean            =  -2.8184890838965E-22
(PID.TID 0000.0001) %MON dynstat_wvel_sd              =   2.1185215572098E-05
(PID.TID 0000.0001) %MON dynstat_wvel_del2            =   7.0447210446033E-06
(PID.TID 0000.0001) %MON dynstat_theta_max            =   2.9669519930423E+01
(PID.TID 0000.0001) %MON dynstat_theta_min            =  -1.9122582841961E+00
(PID.TID 0000.0001) %MON dynstat_theta_mean           =   3.6193422058908E+00
(PID.TID 0000.0001) %MON dynstat_theta_sd             =   4.4142111572860E+00
(PID.TID 0000.0001) %MON dynstat_theta_del2           =   1.3853090283863E-01
(PID.TID 0000.0001) %MON dynstat_salt_max             =   3.7435957309501E+01
(PID.TID 0000.0001) %MON dynstat_salt_min             =   2.9747071487092E+01
(PID.TID 0000.0001) %MON dynstat_salt_mean            =   3.4717971093729E+01
(PID.TID 0000.0001) %MON dynstat_salt_sd              =   2.9616484384124E-01
(PID.TID 0000.0001) %MON dynstat_salt_del2            =   2.6017477596856E-02
(PID.TID 0000.0001) %MON extforcing_qnet_max          =   4.3742086791992E+02
(PID.TID 0000.0001) %MON extforcing_qnet_min          =  -1.8188829345703E+02
(PID.TID 0000.0001) %MON extforcing_qnet_mean         =  -1.6562573824336E+01
(PID.TID 0000.0001) %MON extforcing_qnet_sd           =   1.1061005498176E+02
(PID.TID 0000.0001) %MON extforcing_qnet_del2         =   9.5812729134055E+00
(PID.TID 0000.0001) %MON extforcing_qsw_max           =   0.0000000000000E+00
(PID.TID 0000.0001) %MON extforcing_qsw_min           =   0.0000000000000E+00
(PID.TID 0000.0001) %MON extforcing_qsw_mean          =   0.0000000000000E+00
(PID.TID 0000.0001) %MON extforcing_qsw_sd            =   0.0000000000000E+00
(PID.TID 0000.0001) %MON extforcing_qsw_del2          =   0.0000000000000E+00
(PID.TID 0000.0001) %MON extforcing_empmr_max         =   8.1895939748241E-08
(PID.TID 0000.0001) %MON extforcing_empmr_min         =  -7.3862861427187E-08
(PID.TID 0000.0001) %MON extforcing_empmr_mean        =   8.8385803112861E-10
(PID.TID 0000.0001) %MON extforcing_empmr_sd          =   2.8441005317708E-08
(PID.TID 0000.0001) %MON extforcing_empmr_del2        =   3.7173095650831E-09
(PID.TID 0000.0001) %MON extforcing_fu_max            =   2.6549289822578E-01
(PID.TID 0000.0001) %MON extforcing_fu_min            =  -1.6762689054012E-01
(PID.TID 0000.0001) %MON extforcing_fu_mean           =   1.6059393864623E-02
(PID.TID 0000.0001) %MON extforcing_fu_sd             =   8.9049515588927E-02
(PID.TID 0000.0001) %MON extforcing_fu_del2           =   7.5573907578067E-03
(PID.TID 0000.0001) %MON extforcing_fv_max            =   2.2560169994831E-01
(PID.TID 0000.0001) %MON extforcing_fv_min            =  -1.5974766413371E-01
(PID.TID 0000.0001) %MON extforcing_fv_mean           =  -1.0651854633051E-02
(PID.TID 0000.0001) %MON extforcing_fv_sd             =   3.9980295213775E-02
(PID.TID 0000.0001) %MON extforcing_fv_del2           =   4.3229700503005E-03
(PID.TID 0000.0001) %MON advcfl_uvel_max              =   5.8753875740733E-02
(PID.TID 0000.0001) %MON advcfl_vvel_max              =   2.2377328265513E-02
(PID.TID 0000.0001) %MON advcfl_wvel_max              =   6.8888471914277E-02
(PID.TID 0000.0001) %MON advcfl_W_hf_max              =   8.9763766433755E-02
(PID.TID 0000.0001) %MON pe_b_mean                    =   3.7197549846774E-04
(PID.TID 0000.0001) %MON ke_max                       =   2.0240390345294E-02
(PID.TID 0000.0001) %MON ke_mean                      =   1.5385318467045E-04
(PID.TID 0000.0001) %MON ke_vol                       =   1.3226782436723E+18
(PID.TID 0000.0001) %MON vort_r_min                   =  -4.4701606381189E-07
(PID.TID 0000.0001) %MON vort_r_max                   =   3.5798682230465E-07
(PID.TID 0000.0001) %MON vort_a_mean                  =  -2.5274807239200E-05
(PID.TID 0000.0001) %MON vort_a_sd                    =   7.3604407149420E-05
(PID.TID 0000.0001) %MON vort_p_mean                  =  -3.1845655600079E-05
(PID.TID 0000.0001) %MON vort_p_sd                    =   1.3162361266094E-04
(PID.TID 0000.0001) %MON surfExpan_theta_mean         =   4.5070746461831E-07
(PID.TID 0000.0001) %MON surfExpan_salt_mean          =  -6.4787579666977E-08
(PID.TID 0000.0001) // =======================================================
(PID.TID 0000.0001) // End MONITOR dynamic field statistics
(PID.TID 0000.0001) // =======================================================
(PID.TID 0000.0001) // =======================================================
(PID.TID 0000.0001) // Begin MONITOR ptracer field statistics
(PID.TID 0000.0001) // =======================================================
(PID.TID 0000.0001) %MON trcstat_ptracer01_max        =   1.0385663933898E+06
(PID.TID 0000.0001) %MON trcstat_ptracer01_min        =   3.9633383609205E+03
(PID.TID 0000.0001) %MON trcstat_ptracer01_mean       =   1.0230100473549E+06
(PID.TID 0000.0001) %MON trcstat_ptracer01_sd         =   1.1378579425415E+05
(PID.TID 0000.0001) %MON trcstat_ptracer01_del2       =   3.5643874431922E+03
(PID.TID 0000.0001) // =======================================================
(PID.TID 0000.0001) // End MONITOR ptracers field statistics
(PID.TID 0000.0001) // =======================================================
time,SST,SSS,fu,fv,Q,E-P,i0,i1,a,b =   1.0368E+06  7.7737E-01  3.4644E+01 -3.6606E-02 -5.8556E-02  2.6564E+02  1.1478E-08    12     1  9.0000E-01  1.0000E-01
time,fu0,fu1,fu =   1.0368E+06 -4.5368E-02 -3.5633E-02 -3.6606E-02  9.000000000000000E-01  9.999999999999998E-02
 cg2d: Sum(rhs),rhsMax =   1.32406445717561E-01  9.97378261926761E-01
(PID.TID 0000.0001)                    cg2d_init_res =    8.33667768996320E-01
(PID.TID 0000.0001)                       cg2d_iters =   135
(PID.TID 0000.0001)                         cg2d_res =    9.85477235652000E-14
(PID.TID 0000.0001) // =======================================================
(PID.TID 0000.0001) // Begin MONITOR dynamic field statistics
(PID.TID 0000.0001) // =======================================================
(PID.TID 0000.0001) %MON time_tsnumber                =                    13
(PID.TID 0000.0001) %MON time_secondsf                =   1.1232000000000E+06
(PID.TID 0000.0001) %MON dynstat_eta_max              =   7.4463378830714E-01
(PID.TID 0000.0001) %MON dynstat_eta_min              =  -1.3953183557225E+00
(PID.TID 0000.0001) %MON dynstat_eta_mean             =  -9.0616655175341E-04
(PID.TID 0000.0001) %MON dynstat_eta_sd               =   5.4891749848948E-01
(PID.TID 0000.0001) %MON dynstat_eta_del2             =   1.7121908827154E-02
(PID.TID 0000.0001) %MON dynstat_uvel_max             =   2.0685765943561E-01
(PID.TID 0000.0001) %MON dynstat_uvel_min             =  -1.0281310339585E-01
(PID.TID 0000.0001) %MON dynstat_uvel_mean            =   6.3247029482706E-04
(PID.TID 0000.0001) %MON dynstat_uvel_sd              =   1.6033112037244E-02
(PID.TID 0000.0001) %MON dynstat_uvel_del2            =   2.9310163576845E-03
(PID.TID 0000.0001) %MON dynstat_vvel_max             =   1.1099638794002E-01
(PID.TID 0000.0001) %MON dynstat_vvel_min             =  -1.0468274687261E-01
(PID.TID 0000.0001) %MON dynstat_vvel_mean            =  -2.6252682785755E-05
(PID.TID 0000.0001) %MON dynstat_vvel_sd              =   9.9115734893017E-03
(PID.TID 0000.0001) %MON dynstat_vvel_del2            =   2.7320335170987E-03
(PID.TID 0000.0001) %MON dynstat_wvel_max             =   1.8160009716098E-04
(PID.TID 0000.0001) %MON dynstat_wvel_min             =  -1.9321670997801E-04
(PID.TID 0000.0001) %MON dynstat_wvel_mean            =   1.4092445419483E-22
(PID.TID 0000.0001) %MON dynstat_wvel_sd              =   1.9768136749093E-05
(PID.TID 0000.0001) %MON dynstat_wvel_del2            =   6.5065261796467E-06
(PID.TID 0000.0001) %MON dynstat_theta_max            =   2.9670774842090E+01
(PID.TID 0000.0001) %MON dynstat_theta_min            =  -1.9117284966916E+00
(PID.TID 0000.0001) %MON dynstat_theta_mean           =   3.6193921030799E+00
(PID.TID 0000.0001) %MON dynstat_theta_sd             =   4.4142073224264E+00
(PID.TID 0000.0001) %MON dynstat_theta_del2           =   1.3812291334625E-01
(PID.TID 0000.0001) %MON dynstat_salt_max             =   3.7436622159966E+01
(PID.TID 0000.0001) %MON dynstat_salt_min             =   2.9748381396857E+01
(PID.TID 0000.0001) %MON dynstat_salt_mean            =   3.4717973059275E+01
(PID.TID 0000.0001) %MON dynstat_salt_sd              =   2.9617147111589E-01
(PID.TID 0000.0001) %MON dynstat_salt_del2            =   2.6027296712409E-02
(PID.TID 0000.0001) %MON extforcing_qnet_max          =   4.3846905517578E+02
(PID.TID 0000.0001) %MON extforcing_qnet_min          =  -1.8174754943848E+02
(PID.TID 0000.0001) %MON extforcing_qnet_mean         =  -1.6550061868513E+01
(PID.TID 0000.0001) %MON extforcing_qnet_sd           =   1.1042168913970E+02
(PID.TID 0000.0001) %MON extforcing_qnet_del2         =   9.6008090278912E+00
(PID.TID 0000.0001) %MON extforcing_qsw_max           =   0.0000000000000E+00
(PID.TID 0000.0001) %MON extforcing_qsw_min           =   0.0000000000000E+00
(PID.TID 0000.0001) %MON extforcing_qsw_mean          =   0.0000000000000E+00
(PID.TID 0000.0001) %MON extforcing_qsw_sd            =   0.0000000000000E+00
(PID.TID 0000.0001) %MON extforcing_qsw_del2          =   0.0000000000000E+00
(PID.TID 0000.0001) %MON extforcing_empmr_max         =   8.1897606207804E-08
(PID.TID 0000.0001) %MON extforcing_empmr_min         =  -7.4245208736556E-08
(PID.TID 0000.0001) %MON extforcing_empmr_mean        =   8.9362778887412E-10
(PID.TID 0000.0001) %MON extforcing_empmr_sd          =   2.8524757575519E-08
(PID.TID 0000.0001) %MON extforcing_empmr_del2        =   3.7245343549653E-09
(PID.TID 0000.0001) %MON extforcing_fu_max            =   2.6881439387798E-01
(PID.TID 0000.0001) %MON extforcing_fu_min            =  -1.6844031065702E-01
(PID.TID 0000.0001) %MON extforcing_fu_mean           =   1.5987709529857E-02
(PID.TID 0000.0001) %MON extforcing_fu_sd             =   8.9107248207343E-02
(PID.TID 0000.0001) %MON extforcing_fu_del2           =   7.5937659759368E-03
(PID.TID 0000.0001) %MON extforcing_fv_max            =   2.2748160511255E-01
(PID.TID 0000.0001) %MON extforcing_fv_min            =  -1.6272131651640E-01
(PID.TID 0000.0001) %MON extforcing_fv_mean           =  -1.0689253172672E-02
(PID.TID 0000.0001) %MON extforcing_fv_sd             =   4.0065585075507E-02
(PID.TID 0000.0001) %MON extforcing_fv_del2           =   4.3708960517784E-03
(PID.TID 0000.0001) %MON advcfl_uvel_max              =   6.0087270367105E-02
(PID.TID 0000.0001) %MON advcfl_vvel_max              =   2.1564818008706E-02
(PID.TID 0000.0001) %MON advcfl_wvel_max              =   6.3627729462587E-02
(PID.TID 0000.0001) %MON advcfl_W_hf_max              =   8.2908859602765E-02
(PID.TID 0000.0001) %MON pe_b_mean                    =   3.8556405112202E-04
(PID.TID 0000.0001) %MON ke_max                       =   2.1240932794672E-02
(PID.TID 0000.0001) %MON ke_mean                      =   1.6107252510280E-04
(PID.TID 0000.0001) %MON ke_vol                       =   1.3226782436723E+18
(PID.TID 0000.0001) %MON vort_r_min                   =  -4.5585817181313E-07
(PID.TID 0000.0001) %MON vort_r_max                   =   3.7600594665390E-07
(PID.TID 0000.0001) %MON vort_a_mean                  =  -2.5274807198378E-05
(PID.TID 0000.0001) %MON vort_a_sd                    =   7.3604414025199E-05
(PID.TID 0000.0001) %MON vort_p_mean                  =  -3.1845655548644E-05
(PID.TID 0000.0001) %MON vort_p_sd                    =   1.3162349717128E-04
(PID.TID 0000.0001) %MON surfExpan_theta_mean         =   4.4398039403678E-07
(PID.TID 0000.0001) %MON surfExpan_salt_mean          =  -5.8090241518561E-08
(PID.TID 0000.0001) // =======================================================
(PID.TID 0000.0001) // End MONITOR dynamic field statistics
(PID.TID 0000.0001) // =======================================================
(PID.TID 0000.0001) // =======================================================
(PID.TID 0000.0001) // Begin MONITOR ptracer field statistics
(PID.TID 0000.0001) // =======================================================
(PID.TID 0000.0001) %MON trcstat_ptracer01_max        =   1.1250965066875E+06
(PID.TID 0000.0001) %MON trcstat_ptracer01_min        =   4.4794772533648E+03
(PID.TID 0000.0001) %MON trcstat_ptracer01_mean       =   1.1082141319657E+06
(PID.TID 0000.0001) %MON trcstat_ptracer01_sd         =   1.2310816203538E+05
(PID.TID 0000.0001) %MON trcstat_ptracer01_del2       =   3.9714054076849E+03
(PID.TID 0000.0001) // =======================================================
(PID.TID 0000.0001) // End MONITOR ptracers field statistics
(PID.TID 0000.0001) // =======================================================
time,SST,SSS,fu,fv,Q,E-P,i0,i1,a,b =   1.1232E+06  8.3772E-01  3.4668E+01 -3.6282E-02 -5.8123E-02  2.6568E+02  1.1531E-08    12     1  9.3333E-01  6.6667E-02
time,fu0,fu1,fu =   1.1232E+06 -4.5368E-02 -3.5633E-02 -3.6282E-02  9.333333333333333E-01  6.666666666666665E-02
 cg2d: Sum(rhs),rhsMax =   1.40473154281806E-01  1.01834194827014E+00
(PID.TID 0000.0001)                    cg2d_init_res =    7.49818783371906E-01
(PID.TID 0000.0001)                       cg2d_iters =   132
(PID.TID 0000.0001)                         cg2d_res =    8.99155281511767E-14
(PID.TID 0000.0001) // =======================================================
(PID.TID 0000.0001) // Begin MONITOR dynamic field statistics
(PID.TID 0000.0001) // =======================================================
(PID.TID 0000.0001) %MON time_tsnumber                =                    14
(PID.TID 0000.0001) %MON time_secondsf                =   1.2096000000000E+06
(PID.TID 0000.0001) %MON dynstat_eta_max              =   7.6578045603120E-01
(PID.TID 0000.0001) %MON dynstat_eta_min              =  -1.4309726171226E+00
(PID.TID 0000.0001) %MON dynstat_eta_mean             =  -9.8158060781907E-04
(PID.TID 0000.0001) %MON dynstat_eta_sd               =   5.5832750613607E-01
(PID.TID 0000.0001) %MON dynstat_eta_del2             =   1.7046827214922E-02
(PID.TID 0000.0001) %MON dynstat_uvel_max             =   2.0932990783149E-01
(PID.TID 0000.0001) %MON dynstat_uvel_min             =  -1.0688794964132E-01
(PID.TID 0000.0001) %MON dynstat_uvel_mean            =   7.2064975276172E-04
(PID.TID 0000.0001) %MON dynstat_uvel_sd              =   1.6585489139826E-02
(PID.TID 0000.0001) %MON dynstat_uvel_del2            =   2.9757356377951E-03
(PID.TID 0000.0001) %MON dynstat_vvel_max             =   1.1612842540961E-01
(PID.TID 0000.0001) %MON dynstat_vvel_min             =  -1.0408122652514E-01
(PID.TID 0000.0001) %MON dynstat_vvel_mean            =   3.6449973240855E-05
(PID.TID 0000.0001) %MON dynstat_vvel_sd              =   9.5493126218303E-03
(PID.TID 0000.0001) %MON dynstat_vvel_del2            =   2.6449104901711E-03
(PID.TID 0000.0001) %MON dynstat_wvel_max             =   1.6492169281134E-04
(PID.TID 0000.0001) %MON dynstat_wvel_min             =  -1.9549855827683E-04
(PID.TID 0000.0001) %MON dynstat_wvel_mean            =  -1.9964297677600E-22
(PID.TID 0000.0001) %MON dynstat_wvel_sd              =   1.8830238012539E-05
(PID.TID 0000.0001) %MON dynstat_wvel_del2            =   6.3656083853434E-06
(PID.TID 0000.0001) %MON dynstat_theta_max            =   2.9672797260202E+01
(PID.TID 0000.0001) %MON dynstat_theta_min            =  -1.9121310941290E+00
(PID.TID 0000.0001) %MON dynstat_theta_mean           =   3.6194425686762E+00
(PID.TID 0000.0001) %MON dynstat_theta_sd             =   4.4142080924080E+00
(PID.TID 0000.0001) %MON dynstat_theta_del2           =   1.3783303910879E-01
(PID.TID 0000.0001) %MON dynstat_salt_max             =   3.7437311613410E+01
(PID.TID 0000.0001) %MON dynstat_salt_min             =   2.9750195036955E+01
(PID.TID 0000.0001) %MON dynstat_salt_mean            =   3.4717974852379E+01
(PID.TID 0000.0001) %MON dynstat_salt_sd              =   2.9617627402017E-01
(PID.TID 0000.0001) %MON dynstat_salt_del2            =   2.6049481113195E-02
(PID.TID 0000.0001) %MON extforcing_qnet_max          =   4.3951724243164E+02
(PID.TID 0000.0001) %MON extforcing_qnet_min          =  -1.8160680541992E+02
(PID.TID 0000.0001) %MON extforcing_qnet_mean         =  -1.6537549912690E+01
(PID.TID 0000.0001) %MON extforcing_qnet_sd           =   1.1023602940575E+02
(PID.TID 0000.0001) %MON extforcing_qnet_del2         =   9.6214528970052E+00
(PID.TID 0000.0001) %MON extforcing_qsw_max           =   0.0000000000000E+00
(PID.TID 0000.0001) %MON extforcing_qsw_min           =   0.0000000000000E+00
(PID.TID 0000.0001) %MON extforcing_qsw_mean          =   0.0000000000000E+00
(PID.TID 0000.0001) %MON extforcing_qsw_sd            =   0.0000000000000E+00
(PID.TID 0000.0001) %MON extforcing_qsw_del2          =   0.0000000000000E+00
(PID.TID 0000.0001) %MON extforcing_empmr_max         =   8.1966015841317E-08
(PID.TID 0000.0001) %MON extforcing_empmr_min         =  -7.4627556045925E-08
(PID.TID 0000.0001) %MON extforcing_empmr_mean        =   9.0339754661962E-10
(PID.TID 0000.0001) %MON extforcing_empmr_sd          =   2.8612540665613E-08
(PID.TID 0000.0001) %MON extforcing_empmr_del2        =   3.7326534000636E-09
(PID.TID 0000.0001) %MON extforcing_fu_max            =   2.7213588953018E-01
(PID.TID 0000.0001) %MON extforcing_fu_min            =  -1.6925373077393E-01
(PID.TID 0000.0001) %MON extforcing_fu_mean           =   1.5916025195091E-02
(PID.TID 0000.0001) %MON extforcing_fu_sd             =   8.9174238664625E-02
(PID.TID 0000.0001) %MON extforcing_fu_del2           =   7.6337131279755E-03
(PID.TID 0000.0001) %MON extforcing_fv_max            =   2.2936151027679E-01
(PID.TID 0000.0001) %MON extforcing_fv_min            =  -1.6569496889909E-01
(PID.TID 0000.0001) %MON extforcing_fv_mean           =  -1.0726651712293E-02
(PID.TID 0000.0001) %MON extforcing_fv_sd             =   4.0161491265484E-02
(PID.TID 0000.0001) %MON extforcing_fv_del2           =   4.4225671781533E-03
(PID.TID 0000.0001) %MON advcfl_uvel_max              =   5.9948152057677E-02
(PID.TID 0000.0001) %MON advcfl_vvel_max              =   2.2561890581062E-02
(PID.TID 0000.0001) %MON advcfl_wvel_max              =   5.9656831821734E-02
(PID.TID 0000.0001) %MON advcfl_W_hf_max              =   7.4275458671515E-02
(PID.TID 0000.0001) %MON pe_b_mean                    =   3.9889683502301E-04
(PID.TID 0000.0001) %MON ke_max                       =   2.1824260752107E-02
(PID.TID 0000.0001) %MON ke_mean                      =   1.6614774762985E-04
(PID.TID 0000.0001) %MON ke_vol                       =   1.3226782436723E+18
(PID.TID 0000.0001) %MON vort_r_min                   =  -4.5405532064968E-07
(PID.TID 0000.0001) %MON vort_r_max                   =   3.8723970790858E-07
(PID.TID 0000.0001) %MON vort_a_mean                  =  -2.5274807124922E-05
(PID.TID 0000.0001) %MON vort_a_sd                    =   7.3604420880394E-05
(PID.TID 0000.0001) %MON vort_p_mean                  =  -3.1845655456092E-05
(PID.TID 0000.0001) %MON vort_p_sd                    =   1.3162343804231E-04
(PID.TID 0000.0001) %MON surfExpan_theta_mean         =   4.4662826822968E-07
(PID.TID 0000.0001) %MON surfExpan_salt_mean          =  -4.5605861655635E-08
(PID.TID 0000.0001) // =======================================================
(PID.TID 0000.0001) // End MONITOR dynamic field statistics
(PID.TID 0000.0001) // =======================================================
(PID.TID 0000.0001) // =======================================================
(PID.TID 0000.0001) // Begin MONITOR ptracer field statistics
(PID.TID 0000.0001) // =======================================================
(PID.TID 0000.0001) %MON trcstat_ptracer01_max        =   1.2115845430555E+06
(PID.TID 0000.0001) %MON trcstat_ptracer01_min        =   5.0136298678800E+03
(PID.TID 0000.0001) %MON trcstat_ptracer01_mean       =   1.1934083989964E+06
(PID.TID 0000.0001) %MON trcstat_ptracer01_sd         =   1.3239917428644E+05
(PID.TID 0000.0001) %MON trcstat_ptracer01_del2       =   4.4666873282208E+03
(PID.TID 0000.0001) // =======================================================
(PID.TID 0000.0001) // End MONITOR ptracers field statistics
(PID.TID 0000.0001) // =======================================================
time,SST,SSS,fu,fv,Q,E-P,i0,i1,a,b =   1.2096E+06  8.9807E-01  3.4691E+01 -3.5957E-02 -5.7690E-02  2.6573E+02  1.1584E-08    12     1  9.6667E-01  3.3333E-02
time,fu0,fu1,fu =   1.2096E+06 -4.5368E-02 -3.5633E-02 -3.5957E-02  9.666666666666667E-01  3.333333333333333E-02
 cg2d: Sum(rhs),rhsMax =   1.45637225384514E-01  1.05851340766005E+00
(PID.TID 0000.0001)                    cg2d_init_res =    6.82706505532322E-01
(PID.TID 0000.0001)                       cg2d_iters =   133
(PID.TID 0000.0001)                         cg2d_res =    7.98049488086394E-14
(PID.TID 0000.0001) // =======================================================
(PID.TID 0000.0001) // Begin MONITOR dynamic field statistics
(PID.TID 0000.0001) // =======================================================
(PID.TID 0000.0001) %MON time_tsnumber                =                    15
(PID.TID 0000.0001) %MON time_secondsf                =   1.2960000000000E+06
(PID.TID 0000.0001) %MON dynstat_eta_max              =   8.0056772167043E-01
(PID.TID 0000.0001) %MON dynstat_eta_min              =  -1.4709460552050E+00
(PID.TID 0000.0001) %MON dynstat_eta_mean             =  -1.0578102262705E-03
(PID.TID 0000.0001) %MON dynstat_eta_sd               =   5.6655809724541E-01
(PID.TID 0000.0001) %MON dynstat_eta_del2             =   1.7069062385370E-02
(PID.TID 0000.0001) %MON dynstat_uvel_max             =   2.0756764129629E-01
(PID.TID 0000.0001) %MON dynstat_uvel_min             =  -1.0992664812467E-01
(PID.TID 0000.0001) %MON dynstat_uvel_mean            =   8.1098812774252E-04
(PID.TID 0000.0001) %MON dynstat_uvel_sd              =   1.6898314515084E-02
(PID.TID 0000.0001) %MON dynstat_uvel_del2            =   3.0107480591746E-03
(PID.TID 0000.0001) %MON dynstat_vvel_max             =   1.2057941088370E-01
(PID.TID 0000.0001) %MON dynstat_vvel_min             =  -1.0692520933656E-01
(PID.TID 0000.0001) %MON dynstat_vvel_mean            =   7.7929526741633E-05
(PID.TID 0000.0001) %MON dynstat_vvel_sd              =   9.3369995589554E-03
(PID.TID 0000.0001) %MON dynstat_vvel_del2            =   2.6046136580484E-03
(PID.TID 0000.0001) %MON dynstat_wvel_max             =   1.6726809200795E-04
(PID.TID 0000.0001) %MON dynstat_wvel_min             =  -1.9581621856678E-04
(PID.TID 0000.0001) %MON dynstat_wvel_mean            =  -2.7010520387342E-22
(PID.TID 0000.0001) %MON dynstat_wvel_sd              =   1.8483139834181E-05
(PID.TID 0000.0001) %MON dynstat_wvel_del2            =   6.5234719184442E-06
(PID.TID 0000.0001) %MON dynstat_theta_max            =   2.9675834653828E+01
(PID.TID 0000.0001) %MON dynstat_theta_min            =  -1.9126780615065E+00
(PID.TID 0000.0001) %MON dynstat_theta_mean           =   3.6194930905062E+00
(PID.TID 0000.0001) %MON dynstat_theta_sd             =   4.4142122631768E+00
(PID.TID 0000.0001) %MON dynstat_theta_del2           =   1.3761750046181E-01
(PID.TID 0000.0001) %MON dynstat_salt_max             =   3.7438068680066E+01
(PID.TID 0000.0001) %MON dynstat_salt_min             =   2.9752502415971E+01
(PID.TID 0000.0001) %MON dynstat_salt_mean            =   3.4717976300164E+01
(PID.TID 0000.0001) %MON dynstat_salt_sd              =   2.9618061761116E-01
(PID.TID 0000.0001) %MON dynstat_salt_del2            =   2.6067654114583E-02
(PID.TID 0000.0001) %MON extforcing_qnet_max          =   4.4056542968750E+02
(PID.TID 0000.0001) %MON extforcing_qnet_min          =  -1.8146606140137E+02
(PID.TID 0000.0001) %MON extforcing_qnet_mean         =  -1.6525037956867E+01
(PID.TID 0000.0001) %MON extforcing_qnet_sd           =   1.1005308947553E+02
(PID.TID 0000.0001) %MON extforcing_qnet_del2         =   9.6438151725511E+00
(PID.TID 0000.0001) %MON extforcing_qsw_max           =   0.0000000000000E+00
(PID.TID 0000.0001) %MON extforcing_qsw_min           =   0.0000000000000E+00
(PID.TID 0000.0001) %MON extforcing_qsw_mean          =   0.0000000000000E+00
(PID.TID 0000.0001) %MON extforcing_qsw_sd            =   0.0000000000000E+00
(PID.TID 0000.0001) %MON extforcing_qsw_del2          =   0.0000000000000E+00
(PID.TID 0000.0001) %MON extforcing_empmr_max         =   8.2070127405132E-08
(PID.TID 0000.0001) %MON extforcing_empmr_min         =  -7.5009903355294E-08
(PID.TID 0000.0001) %MON extforcing_empmr_mean        =   9.1316730436512E-10
(PID.TID 0000.0001) %MON extforcing_empmr_sd          =   2.8704317606931E-08
(PID.TID 0000.0001) %MON extforcing_empmr_del2        =   3.7417550447287E-09
(PID.TID 0000.0001) %MON extforcing_fu_max            =   2.7545738518238E-01
(PID.TID 0000.0001) %MON extforcing_fu_min            =  -1.7006715089083E-01
(PID.TID 0000.0001) %MON extforcing_fu_mean           =   1.5844340860325E-02
(PID.TID 0000.0001) %MON extforcing_fu_sd             =   8.9250466114266E-02
(PID.TID 0000.0001) %MON extforcing_fu_del2           =   7.6772998352060E-03
(PID.TID 0000.0001) %MON extforcing_fv_max            =   2.3124141544104E-01
(PID.TID 0000.0001) %MON extforcing_fv_min            =  -1.6866862128178E-01
(PID.TID 0000.0001) %MON extforcing_fv_mean           =  -1.0764050251913E-02
(PID.TID 0000.0001) %MON extforcing_fv_sd             =   4.0267937929014E-02
(PID.TID 0000.0001) %MON extforcing_fv_del2           =   4.4765720261542E-03
(PID.TID 0000.0001) %MON advcfl_uvel_max              =   5.8360111626783E-02
(PID.TID 0000.0001) %MON advcfl_vvel_max              =   2.3426645673453E-02
(PID.TID 0000.0001) %MON advcfl_wvel_max              =   5.9688851844727E-02
(PID.TID 0000.0001) %MON advcfl_W_hf_max              =   7.3569980180710E-02
(PID.TID 0000.0001) %MON pe_b_mean                    =   4.1074436667980E-04
(PID.TID 0000.0001) %MON ke_max                       =   2.1987575925812E-02
(PID.TID 0000.0001) %MON ke_mean                      =   1.6917132111599E-04
(PID.TID 0000.0001) %MON ke_vol                       =   1.3226782436723E+18
(PID.TID 0000.0001) %MON vort_r_min                   =  -4.4209335780885E-07
(PID.TID 0000.0001) %MON vort_r_max                   =   4.0493113174901E-07
(PID.TID 0000.0001) %MON vort_a_mean                  =  -2.5274807041054E-05
(PID.TID 0000.0001) %MON vort_a_sd                    =   7.3604429990349E-05
(PID.TID 0000.0001) %MON vort_p_mean                  =  -3.1845655350419E-05
(PID.TID 0000.0001) %MON vort_p_sd                    =   1.3162344421809E-04
(PID.TID 0000.0001) %MON surfExpan_theta_mean         =   4.5262738011799E-07
(PID.TID 0000.0001) %MON surfExpan_salt_mean          =  -2.7447451145971E-08
(PID.TID 0000.0001) // =======================================================
(PID.TID 0000.0001) // End MONITOR dynamic field statistics
(PID.TID 0000.0001) // =======================================================
(PID.TID 0000.0001) // =======================================================
(PID.TID 0000.0001) // Begin MONITOR ptracer field statistics
(PID.TID 0000.0001) // =======================================================
(PID.TID 0000.0001) %MON trcstat_ptracer01_max        =   1.2980499025017E+06
(PID.TID 0000.0001) %MON trcstat_ptracer01_min        =   5.5360811877802E+03
(PID.TID 0000.0001) %MON trcstat_ptracer01_mean       =   1.2785913753700E+06
(PID.TID 0000.0001) %MON trcstat_ptracer01_sd         =   1.4172139377469E+05
(PID.TID 0000.0001) %MON trcstat_ptracer01_del2       =   4.8933617418739E+03
(PID.TID 0000.0001) // =======================================================
(PID.TID 0000.0001) // End MONITOR ptracers field statistics
(PID.TID 0000.0001) // =======================================================
S/R EXTERNAL_FIELDS_LOAD: Reading new data:    1    2        15  1.296000000000E+06
(PID.TID 0000.0001)  MDS_READ_FIELD: opening global file: trenberth_taux.bin
(PID.TID 0000.0001)  MDS_READ_FIELD: opening global file: trenberth_taux.bin
(PID.TID 0000.0001)  MDS_READ_FIELD: opening global file: trenberth_tauy.bin
(PID.TID 0000.0001)  MDS_READ_FIELD: opening global file: trenberth_tauy.bin
(PID.TID 0000.0001)  MDS_READ_FIELD: opening global file: ncep_qnet.bin
(PID.TID 0000.0001)  MDS_READ_FIELD: opening global file: ncep_qnet.bin
(PID.TID 0000.0001)  MDS_READ_FIELD: opening global file: ncep_emp.bin
(PID.TID 0000.0001)  MDS_READ_FIELD: opening global file: ncep_emp.bin
(PID.TID 0000.0001)  MDS_READ_FIELD: opening global file: lev_sst.bin
(PID.TID 0000.0001)  MDS_READ_FIELD: opening global file: lev_sst.bin
(PID.TID 0000.0001)  MDS_READ_FIELD: opening global file: lev_sss.bin
(PID.TID 0000.0001)  MDS_READ_FIELD: opening global file: lev_sss.bin
time,SST,SSS,fu,fv,Q,E-P,i0,i1,a,b =   1.2960E+06  9.5843E-01  3.4715E+01 -3.5633E-02 -5.7257E-02  2.6577E+02  1.1637E-08     1     2  0.0000E+00  1.0000E+00
time,fu0,fu1,fu =   1.2960E+06 -3.5633E-02 -1.4435E-02 -3.5633E-02  0.000000000000000E+00  1.000000000000000E+00
 cg2d: Sum(rhs),rhsMax =   1.48492388084552E-01  1.11377467336868E+00
(PID.TID 0000.0001)                    cg2d_init_res =    6.35483277715791E-01
(PID.TID 0000.0001)                       cg2d_iters =   134
(PID.TID 0000.0001)                         cg2d_res =    8.54429330963207E-14
(PID.TID 0000.0001) // =======================================================
(PID.TID 0000.0001) // Begin MONITOR dynamic field statistics
(PID.TID 0000.0001) // =======================================================
(PID.TID 0000.0001) %MON time_tsnumber                =                    16
(PID.TID 0000.0001) %MON time_secondsf                =   1.3824000000000E+06
(PID.TID 0000.0001) %MON dynstat_eta_max              =   8.4261784528840E-01
(PID.TID 0000.0001) %MON dynstat_eta_min              =  -1.5105379081829E+00
(PID.TID 0000.0001) %MON dynstat_eta_mean             =  -1.1348554071078E-03
(PID.TID 0000.0001) %MON dynstat_eta_sd               =   5.7316445497657E-01
(PID.TID 0000.0001) %MON dynstat_eta_del2             =   1.7120419220733E-02
(PID.TID 0000.0001) %MON dynstat_uvel_max             =   2.0399860613543E-01
(PID.TID 0000.0001) %MON dynstat_uvel_min             =  -1.1174953343555E-01
(PID.TID 0000.0001) %MON dynstat_uvel_mean            =   9.0861012243648E-04
(PID.TID 0000.0001) %MON dynstat_uvel_sd              =   1.6971060254087E-02
(PID.TID 0000.0001) %MON dynstat_uvel_del2            =   3.0306544477707E-03
(PID.TID 0000.0001) %MON dynstat_vvel_max             =   1.2432869518520E-01
(PID.TID 0000.0001) %MON dynstat_vvel_min             =  -1.0905302524294E-01
(PID.TID 0000.0001) %MON dynstat_vvel_mean            =   9.9320793733670E-05
(PID.TID 0000.0001) %MON dynstat_vvel_sd              =   9.3207763059985E-03
(PID.TID 0000.0001) %MON dynstat_vvel_del2            =   2.6088169585239E-03
(PID.TID 0000.0001) %MON dynstat_wvel_max             =   1.6546313852260E-04
(PID.TID 0000.0001) %MON dynstat_wvel_min             =  -1.9422955969302E-04
(PID.TID 0000.0001) %MON dynstat_wvel_mean            =   3.4056743097083E-22
(PID.TID 0000.0001) %MON dynstat_wvel_sd              =   1.8666829167152E-05
(PID.TID 0000.0001) %MON dynstat_wvel_del2            =   6.8464849944396E-06
(PID.TID 0000.0001) %MON dynstat_theta_max            =   2.9680220182100E+01
(PID.TID 0000.0001) %MON dynstat_theta_min            =  -1.9131147233048E+00
(PID.TID 0000.0001) %MON dynstat_theta_mean           =   3.6195440026411E+00
(PID.TID 0000.0001) %MON dynstat_theta_sd             =   4.4142203482783E+00
(PID.TID 0000.0001) %MON dynstat_theta_del2           =   1.3744823920670E-01
(PID.TID 0000.0001) %MON dynstat_salt_max             =   3.7438921222995E+01
(PID.TID 0000.0001) %MON dynstat_salt_min             =   2.9755326923081E+01
(PID.TID 0000.0001) %MON dynstat_salt_mean            =   3.4717977291028E+01
(PID.TID 0000.0001) %MON dynstat_salt_sd              =   2.9618437867405E-01
(PID.TID 0000.0001) %MON dynstat_salt_del2            =   2.6084238756861E-02
(PID.TID 0000.0001) %MON extforcing_qnet_max          =   4.4161361694336E+02
(PID.TID 0000.0001) %MON extforcing_qnet_min          =  -1.8132531738281E+02
(PID.TID 0000.0001) %MON extforcing_qnet_mean         =  -1.6512526001044E+01
(PID.TID 0000.0001) %MON extforcing_qnet_sd           =   1.0987288293460E+02
(PID.TID 0000.0001) %MON extforcing_qnet_del2         =   9.6689454498868E+00
(PID.TID 0000.0001) %MON extforcing_qsw_max           =   0.0000000000000E+00
(PID.TID 0000.0001) %MON extforcing_qsw_min           =   0.0000000000000E+00
(PID.TID 0000.0001) %MON extforcing_qsw_mean          =   0.0000000000000E+00
(PID.TID 0000.0001) %MON extforcing_qsw_sd            =   0.0000000000000E+00
(PID.TID 0000.0001) %MON extforcing_qsw_del2          =   0.0000000000000E+00
(PID.TID 0000.0001) %MON extforcing_empmr_max         =   8.2174238968946E-08
(PID.TID 0000.0001) %MON extforcing_empmr_min         =  -7.6155956207913E-08
(PID.TID 0000.0001) %MON extforcing_empmr_mean        =   9.2293706211063E-10
(PID.TID 0000.0001) %MON extforcing_empmr_sd          =   2.8800050217957E-08
(PID.TID 0000.0001) %MON extforcing_empmr_del2        =   3.7517335599309E-09
(PID.TID 0000.0001) %MON extforcing_fu_max            =   2.7877888083458E-01
(PID.TID 0000.0001) %MON extforcing_fu_min            =  -1.7088057100773E-01
(PID.TID 0000.0001) %MON extforcing_fu_mean           =   1.5772656525559E-02
(PID.TID 0000.0001) %MON extforcing_fu_sd             =   8.9335906911385E-02
(PID.TID 0000.0001) %MON extforcing_fu_del2           =   7.7282201511318E-03
(PID.TID 0000.0001) %MON extforcing_fv_max            =   2.3312132060528E-01
(PID.TID 0000.0001) %MON extforcing_fv_min            =  -1.7164227366447E-01
(PID.TID 0000.0001) %MON extforcing_fv_mean           =  -1.0801448791534E-02
(PID.TID 0000.0001) %MON extforcing_fv_sd             =   4.0384841718212E-02
(PID.TID 0000.0001) %MON extforcing_fv_del2           =   4.5334593570379E-03
(PID.TID 0000.0001) %MON advcfl_uvel_max              =   5.7074973033225E-02
(PID.TID 0000.0001) %MON advcfl_vvel_max              =   2.4155071481944E-02
(PID.TID 0000.0001) %MON advcfl_wvel_max              =   5.9126482856094E-02
(PID.TID 0000.0001) %MON advcfl_W_hf_max              =   7.2876827706349E-02
(PID.TID 0000.0001) %MON pe_b_mean                    =   4.2037937675051E-04
(PID.TID 0000.0001) %MON ke_max                       =   2.1747742621662E-02
(PID.TID 0000.0001) %MON ke_mean                      =   1.7023276432603E-04
(PID.TID 0000.0001) %MON ke_vol                       =   1.3226782436723E+18
(PID.TID 0000.0001) %MON vort_r_min                   =  -4.2094121245875E-07
(PID.TID 0000.0001) %MON vort_r_max                   =   4.2049940645160E-07
(PID.TID 0000.0001) %MON vort_a_mean                  =  -2.5274806969335E-05
(PID.TID 0000.0001) %MON vort_a_sd                    =   7.3604442644470E-05
(PID.TID 0000.0001) %MON vort_p_mean                  =  -3.1845655260055E-05
(PID.TID 0000.0001) %MON vort_p_sd                    =   1.3162351852118E-04
(PID.TID 0000.0001) %MON surfExpan_theta_mean         =   4.4434392947521E-07
(PID.TID 0000.0001) %MON surfExpan_salt_mean          =  -5.8039655803931E-09
(PID.TID 0000.0001) // =======================================================
(PID.TID 0000.0001) // End MONITOR dynamic field statistics
(PID.TID 0000.0001) // =======================================================
(PID.TID 0000.0001) // =======================================================
(PID.TID 0000.0001) // Begin MONITOR ptracer field statistics
(PID.TID 0000.0001) // =======================================================
(PID.TID 0000.0001) %MON trcstat_ptracer01_max        =   1.3845046322535E+06
(PID.TID 0000.0001) %MON trcstat_ptracer01_min        =   6.0495743961082E+03
(PID.TID 0000.0001) %MON trcstat_ptracer01_mean       =   1.3637632393153E+06
(PID.TID 0000.0001) %MON trcstat_ptracer01_sd         =   1.5103683024190E+05
(PID.TID 0000.0001) %MON trcstat_ptracer01_del2       =   5.2482098185059E+03
(PID.TID 0000.0001) // =======================================================
(PID.TID 0000.0001) // End MONITOR ptracers field statistics
(PID.TID 0000.0001) // =======================================================
time,SST,SSS,fu,fv,Q,E-P,i0,i1,a,b =   1.3824E+06  9.0875E-01  3.4705E+01 -3.4926E-02 -5.5936E-02  2.6493E+02  1.1528E-08     1     2  3.3333E-02  9.6667E-01
time,fu0,fu1,fu =   1.3824E+06 -3.5633E-02 -1.4435E-02 -3.4926E-02  3.333333333333333E-02  9.666666666666667E-01
 cg2d: Sum(rhs),rhsMax =   1.49770257828262E-01  1.17929601443575E+00
(PID.TID 0000.0001)                    cg2d_init_res =    6.03168445467436E-01
(PID.TID 0000.0001)                       cg2d_iters =   132
(PID.TID 0000.0001)                         cg2d_res =    7.63721804086388E-14
(PID.TID 0000.0001) // =======================================================
(PID.TID 0000.0001) // Begin MONITOR dynamic field statistics
(PID.TID 0000.0001) // =======================================================
(PID.TID 0000.0001) %MON time_tsnumber                =                    17
(PID.TID 0000.0001) %MON time_secondsf                =   1.4688000000000E+06
(PID.TID 0000.0001) %MON dynstat_eta_max              =   8.8435002524265E-01
(PID.TID 0000.0001) %MON dynstat_eta_min              =  -1.5460444320510E+00
(PID.TID 0000.0001) %MON dynstat_eta_mean             =  -1.2119575532811E-03
(PID.TID 0000.0001) %MON dynstat_eta_sd               =   5.7789354579944E-01
(PID.TID 0000.0001) %MON dynstat_eta_del2             =   1.7211366737927E-02
(PID.TID 0000.0001) %MON dynstat_uvel_max             =   2.0390308604754E-01
(PID.TID 0000.0001) %MON dynstat_uvel_min             =  -1.1826514169272E-01
(PID.TID 0000.0001) %MON dynstat_uvel_mean            =   1.0137103183594E-03
(PID.TID 0000.0001) %MON dynstat_uvel_sd              =   1.6814503993893E-02
(PID.TID 0000.0001) %MON dynstat_uvel_del2            =   3.0311649074558E-03
(PID.TID 0000.0001) %MON dynstat_vvel_max             =   1.2739423556513E-01
(PID.TID 0000.0001) %MON dynstat_vvel_min             =  -1.1035884265196E-01
(PID.TID 0000.0001) %MON dynstat_vvel_mean            =   1.0419468870485E-04
(PID.TID 0000.0001) %MON dynstat_vvel_sd              =   9.4969595363036E-03
(PID.TID 0000.0001) %MON dynstat_vvel_del2            =   2.6435776450469E-03
(PID.TID 0000.0001) %MON dynstat_wvel_max             =   1.5970991703040E-04
(PID.TID 0000.0001) %MON dynstat_wvel_min             =  -1.9082211916766E-04
(PID.TID 0000.0001) %MON dynstat_wvel_mean            =  -2.3487409032471E-23
(PID.TID 0000.0001) %MON dynstat_wvel_sd              =   1.9186601059104E-05
(PID.TID 0000.0001) %MON dynstat_wvel_del2            =   7.1797639367621E-06
(PID.TID 0000.0001) %MON dynstat_theta_max            =   2.9683474382623E+01
(PID.TID 0000.0001) %MON dynstat_theta_min            =  -1.9438028690685E+00
(PID.TID 0000.0001) %MON dynstat_theta_mean           =   3.6195946232541E+00
(PID.TID 0000.0001) %MON dynstat_theta_sd             =   4.4142360672560E+00
(PID.TID 0000.0001) %MON dynstat_theta_del2           =   1.3729400376275E-01
(PID.TID 0000.0001) %MON dynstat_salt_max             =   3.7439861883962E+01
(PID.TID 0000.0001) %MON dynstat_salt_min             =   2.9758649798119E+01
(PID.TID 0000.0001) %MON dynstat_salt_mean            =   3.4717977749788E+01
(PID.TID 0000.0001) %MON dynstat_salt_sd              =   2.9618737515841E-01
(PID.TID 0000.0001) %MON dynstat_salt_del2            =   2.6097365723071E-02
(PID.TID 0000.0001) %MON extforcing_qnet_max          =   4.3829453023275E+02
(PID.TID 0000.0001) %MON extforcing_qnet_min          =  -1.8026952260335E+02
(PID.TID 0000.0001) %MON extforcing_qnet_mean         =  -1.6427616833641E+01
(PID.TID 0000.0001) %MON extforcing_qnet_sd           =   1.0879423939526E+02
(PID.TID 0000.0001) %MON extforcing_qnet_del2         =   9.6167859194667E+00
(PID.TID 0000.0001) %MON extforcing_qsw_max           =   0.0000000000000E+00
(PID.TID 0000.0001) %MON extforcing_qsw_min           =   0.0000000000000E+00
(PID.TID 0000.0001) %MON extforcing_qsw_mean          =   0.0000000000000E+00
(PID.TID 0000.0001) %MON extforcing_qsw_sd            =   0.0000000000000E+00
(PID.TID 0000.0001) %MON extforcing_qsw_del2          =   0.0000000000000E+00
(PID.TID 0000.0001) %MON extforcing_empmr_max         =   8.1860149236945E-08
(PID.TID 0000.0001) %MON extforcing_empmr_min         =  -7.6235600469469E-08
(PID.TID 0000.0001) %MON extforcing_empmr_mean        =   9.2361945937059E-10
(PID.TID 0000.0001) %MON extforcing_empmr_sd          =   2.8746828928173E-08
(PID.TID 0000.0001) %MON extforcing_empmr_del2        =   3.7394196535090E-09
(PID.TID 0000.0001) %MON extforcing_fu_max            =   2.7858280539513E-01
(PID.TID 0000.0001) %MON extforcing_fu_min            =  -1.6918717175722E-01
(PID.TID 0000.0001) %MON extforcing_fu_mean           =   1.5918393992344E-02
(PID.TID 0000.0001) %MON extforcing_fu_sd             =   8.9218356596819E-02
(PID.TID 0000.0001) %MON extforcing_fu_del2           =   7.6684944765309E-03
(PID.TID 0000.0001) %MON extforcing_fv_max            =   2.2991287360589E-01
(PID.TID 0000.0001) %MON extforcing_fv_min            =  -1.7004998823007E-01
(PID.TID 0000.0001) %MON extforcing_fv_mean           =  -1.0797927467797E-02
(PID.TID 0000.0001) %MON extforcing_fv_sd             =   4.0208084471181E-02
(PID.TID 0000.0001) %MON extforcing_fv_del2           =   4.4691504982898E-03
(PID.TID 0000.0001) %MON advcfl_uvel_max              =   5.5062354008649E-02
(PID.TID 0000.0001) %MON advcfl_vvel_max              =   2.4750656812407E-02
(PID.TID 0000.0001) %MON advcfl_wvel_max              =   5.7996430052917E-02
(PID.TID 0000.0001) %MON advcfl_W_hf_max              =   7.1483971925688E-02
(PID.TID 0000.0001) %MON pe_b_mean                    =   4.2734516869696E-04
(PID.TID 0000.0001) %MON ke_max                       =   2.1529370703226E-02
(PID.TID 0000.0001) %MON ke_mean                      =   1.6941038456550E-04
(PID.TID 0000.0001) %MON ke_vol                       =   1.3226782436723E+18
(PID.TID 0000.0001) %MON vort_r_min                   =  -3.9157927347475E-07
(PID.TID 0000.0001) %MON vort_r_max                   =   4.2999098421513E-07
(PID.TID 0000.0001) %MON vort_a_mean                  =  -2.5274806926194E-05
(PID.TID 0000.0001) %MON vort_a_sd                    =   7.3604458951125E-05
(PID.TID 0000.0001) %MON vort_p_mean                  =  -3.1845655205699E-05
(PID.TID 0000.0001) %MON vort_p_sd                    =   1.3162365748844E-04
(PID.TID 0000.0001) %MON surfExpan_theta_mean         =   4.1084431896363E-07
(PID.TID 0000.0001) %MON surfExpan_salt_mean          =   1.6868243218207E-08
(PID.TID 0000.0001) // =======================================================
(PID.TID 0000.0001) // End MONITOR dynamic field statistics
(PID.TID 0000.0001) // =======================================================
(PID.TID 0000.0001) // =======================================================
(PID.TID 0000.0001) // Begin MONITOR ptracer field statistics
(PID.TID 0000.0001) // =======================================================
(PID.TID 0000.0001) %MON trcstat_ptracer01_max        =   1.4709576359632E+06
(PID.TID 0000.0001) %MON trcstat_ptracer01_min        =   6.5611369659902E+03
(PID.TID 0000.0001) %MON trcstat_ptracer01_mean       =   1.4489234818410E+06
(PID.TID 0000.0001) %MON trcstat_ptracer01_sd         =   1.6039085991348E+05
(PID.TID 0000.0001) %MON trcstat_ptracer01_del2       =   5.5763981028245E+03
(PID.TID 0000.0001) // =======================================================
(PID.TID 0000.0001) // End MONITOR ptracers field statistics
(PID.TID 0000.0001) // =======================================================
time,SST,SSS,fu,fv,Q,E-P,i0,i1,a,b =   1.4688E+06  8.5907E-01  3.4695E+01 -3.4220E-02 -5.4615E-02  2.6408E+02  1.1419E-08     1     2  6.6667E-02  9.3333E-01
time,fu0,fu1,fu =   1.4688E+06 -3.5633E-02 -1.4435E-02 -3.4220E-02  6.666666666666667E-02  9.333333333333333E-01
 cg2d: Sum(rhs),rhsMax =   1.50368500680752E-01  1.24938518490936E+00
(PID.TID 0000.0001)                    cg2d_init_res =    5.79226996931936E-01
(PID.TID 0000.0001)                       cg2d_iters =   132
(PID.TID 0000.0001)                         cg2d_res =    8.95814163676904E-14
(PID.TID 0000.0001) // =======================================================
(PID.TID 0000.0001) // Begin MONITOR dynamic field statistics
(PID.TID 0000.0001) // =======================================================
(PID.TID 0000.0001) %MON time_tsnumber                =                    18
(PID.TID 0000.0001) %MON time_secondsf                =   1.5552000000000E+06
(PID.TID 0000.0001) %MON dynstat_eta_max              =   9.1888359744484E-01
(PID.TID 0000.0001) %MON dynstat_eta_min              =  -1.5749963959415E+00
(PID.TID 0000.0001) %MON dynstat_eta_mean             =  -1.2891166647912E-03
(PID.TID 0000.0001) %MON dynstat_eta_sd               =   5.8057020401002E-01
(PID.TID 0000.0001) %MON dynstat_eta_del2             =   1.7349952288798E-02
(PID.TID 0000.0001) %MON dynstat_uvel_max             =   1.9991292185692E-01
(PID.TID 0000.0001) %MON dynstat_uvel_min             =  -1.2544030910140E-01
(PID.TID 0000.0001) %MON dynstat_uvel_mean            =   1.1215859973605E-03
(PID.TID 0000.0001) %MON dynstat_uvel_sd              =   1.6451380597279E-02
(PID.TID 0000.0001) %MON dynstat_uvel_del2            =   3.0073132308479E-03
(PID.TID 0000.0001) %MON dynstat_vvel_max             =   1.3552927880006E-01
(PID.TID 0000.0001) %MON dynstat_vvel_min             =  -1.1087424850492E-01
(PID.TID 0000.0001) %MON dynstat_vvel_mean            =   9.7316629821758E-05
(PID.TID 0000.0001) %MON dynstat_vvel_sd              =   9.8160373107702E-03
(PID.TID 0000.0001) %MON dynstat_vvel_del2            =   2.6932629739732E-03
(PID.TID 0000.0001) %MON dynstat_wvel_max             =   1.5043855885730E-04
(PID.TID 0000.0001) %MON dynstat_wvel_min             =  -1.8569602472110E-04
(PID.TID 0000.0001) %MON dynstat_wvel_mean            =   3.2882372645459E-22
(PID.TID 0000.0001) %MON dynstat_wvel_sd              =   1.9803115398132E-05
(PID.TID 0000.0001) %MON dynstat_wvel_del2            =   7.4188344628375E-06
(PID.TID 0000.0001) %MON dynstat_theta_max            =   2.9687033764289E+01
(PID.TID 0000.0001) %MON dynstat_theta_min            =  -1.9894010859360E+00
(PID.TID 0000.0001) %MON dynstat_theta_mean           =   3.6196468497537E+00
(PID.TID 0000.0001) %MON dynstat_theta_sd             =   4.4142615109150E+00
(PID.TID 0000.0001) %MON dynstat_theta_del2           =   1.3720675072399E-01
(PID.TID 0000.0001) %MON dynstat_salt_max             =   3.7440865034203E+01
(PID.TID 0000.0001) %MON dynstat_salt_min             =   2.9762499176988E+01
(PID.TID 0000.0001) %MON dynstat_salt_mean            =   3.4717977712645E+01
(PID.TID 0000.0001) %MON dynstat_salt_sd              =   2.9618968807970E-01
(PID.TID 0000.0001) %MON dynstat_salt_del2            =   2.6108210555200E-02
(PID.TID 0000.0001) %MON extforcing_qnet_max          =   4.3497544352214E+02
(PID.TID 0000.0001) %MON extforcing_qnet_min          =  -1.7954050801595E+02
(PID.TID 0000.0001) %MON extforcing_qnet_mean         =  -1.6342707666237E+01
(PID.TID 0000.0001) %MON extforcing_qnet_sd           =   1.0771909522073E+02
(PID.TID 0000.0001) %MON extforcing_qnet_del2         =   9.5655196170201E+00
(PID.TID 0000.0001) %MON extforcing_qsw_max           =   0.0000000000000E+00
(PID.TID 0000.0001) %MON extforcing_qsw_min           =   0.0000000000000E+00
(PID.TID 0000.0001) %MON extforcing_qsw_mean          =   0.0000000000000E+00
(PID.TID 0000.0001) %MON extforcing_qsw_sd            =   0.0000000000000E+00
(PID.TID 0000.0001) %MON extforcing_qsw_del2          =   0.0000000000000E+00
(PID.TID 0000.0001) %MON extforcing_empmr_max         =   8.1546059504944E-08
(PID.TID 0000.0001) %MON extforcing_empmr_min         =  -7.6315244731025E-08
(PID.TID 0000.0001) %MON extforcing_empmr_mean        =   9.2430185663055E-10
(PID.TID 0000.0001) %MON extforcing_empmr_sd          =   2.8695327910657E-08
(PID.TID 0000.0001) %MON extforcing_empmr_del2        =   3.7278942727233E-09
(PID.TID 0000.0001) %MON extforcing_fu_max            =   2.7838672995567E-01
(PID.TID 0000.0001) %MON extforcing_fu_min            =  -1.6925448477268E-01
(PID.TID 0000.0001) %MON extforcing_fu_mean           =   1.6064131459130E-02
(PID.TID 0000.0001) %MON extforcing_fu_sd             =   8.9118583181698E-02
(PID.TID 0000.0001) %MON extforcing_fu_del2           =   7.6142063188786E-03
(PID.TID 0000.0001) %MON extforcing_fv_max            =   2.2670442660650E-01
(PID.TID 0000.0001) %MON extforcing_fv_min            =  -1.6845770279566E-01
(PID.TID 0000.0001) %MON extforcing_fv_mean           =  -1.0794406144060E-02
(PID.TID 0000.0001) %MON extforcing_fv_sd             =   4.0044501101537E-02
(PID.TID 0000.0001) %MON extforcing_fv_del2           =   4.4090092694755E-03
(PID.TID 0000.0001) %MON advcfl_uvel_max              =   5.2264206339662E-02
(PID.TID 0000.0001) %MON advcfl_vvel_max              =   2.6331165242547E-02
(PID.TID 0000.0001) %MON advcfl_wvel_max              =   5.6331437090498E-02
(PID.TID 0000.0001) %MON advcfl_W_hf_max              =   6.9431771297590E-02
(PID.TID 0000.0001) %MON pe_b_mean                    =   4.3131327771253E-04
(PID.TID 0000.0001) %MON ke_max                       =   2.1194171247592E-02
(PID.TID 0000.0001) %MON ke_mean                      =   1.6679300585416E-04
(PID.TID 0000.0001) %MON ke_vol                       =   1.3226782436723E+18
(PID.TID 0000.0001) %MON vort_r_min                   =  -3.5589527299559E-07
(PID.TID 0000.0001) %MON vort_r_max                   =   4.3351132436363E-07
(PID.TID 0000.0001) %MON vort_a_mean                  =  -2.5274806918206E-05
(PID.TID 0000.0001) %MON vort_a_sd                    =   7.3604477918536E-05
(PID.TID 0000.0001) %MON vort_p_mean                  =  -3.1845655195634E-05
(PID.TID 0000.0001) %MON vort_p_sd                    =   1.3162385172198E-04
(PID.TID 0000.0001) %MON surfExpan_theta_mean         =   3.4961011054997E-07
(PID.TID 0000.0001) %MON surfExpan_salt_mean          =   3.7990029161179E-08
(PID.TID 0000.0001) // =======================================================
(PID.TID 0000.0001) // End MONITOR dynamic field statistics
(PID.TID 0000.0001) // =======================================================
(PID.TID 0000.0001) // =======================================================
(PID.TID 0000.0001) // Begin MONITOR ptracer field statistics
(PID.TID 0000.0001) // =======================================================
(PID.TID 0000.0001) %MON trcstat_ptracer01_max        =   1.5574163232113E+06
(PID.TID 0000.0001) %MON trcstat_ptracer01_min        =   7.0680664182111E+03
(PID.TID 0000.0001) %MON trcstat_ptracer01_mean       =   1.5340722149894E+06
(PID.TID 0000.0001) %MON trcstat_ptracer01_sd         =   1.6979199754346E+05
(PID.TID 0000.0001) %MON trcstat_ptracer01_del2       =   5.9493027643984E+03
(PID.TID 0000.0001) // =======================================================
(PID.TID 0000.0001) // End MONITOR ptracers field statistics
(PID.TID 0000.0001) // =======================================================
time,SST,SSS,fu,fv,Q,E-P,i0,i1,a,b =   1.5552E+06  8.0940E-01  3.4685E+01 -3.3513E-02 -5.3295E-02  2.6324E+02  1.1311E-08     1     2  1.0000E-01  9.0000E-01
time,fu0,fu1,fu =   1.5552E+06 -3.5633E-02 -1.4435E-02 -3.3513E-02  1.000000000000000E-01  9.000000000000000E-01
 cg2d: Sum(rhs),rhsMax =   1.50903365780727E-01  1.31952780957229E+00
(PID.TID 0000.0001)                    cg2d_init_res =    5.57847684520950E-01
(PID.TID 0000.0001)                       cg2d_iters =   131
(PID.TID 0000.0001)                         cg2d_res =    7.95196119301627E-14
(PID.TID 0000.0001) // =======================================================
(PID.TID 0000.0001) // Begin MONITOR dynamic field statistics
(PID.TID 0000.0001) // =======================================================
(PID.TID 0000.0001) %MON time_tsnumber                =                    19
(PID.TID 0000.0001) %MON time_secondsf                =   1.6416000000000E+06
(PID.TID 0000.0001) %MON dynstat_eta_max              =   9.4154964639990E-01
(PID.TID 0000.0001) %MON dynstat_eta_min              =  -1.5963062599085E+00
(PID.TID 0000.0001) %MON dynstat_eta_mean             =  -1.3663327416376E-03
(PID.TID 0000.0001) %MON dynstat_eta_sd               =   5.8111975392016E-01
(PID.TID 0000.0001) %MON dynstat_eta_del2             =   1.7570305657742E-02
(PID.TID 0000.0001) %MON dynstat_uvel_max             =   1.9705164621672E-01
(PID.TID 0000.0001) %MON dynstat_uvel_min             =  -1.3218523253191E-01
(PID.TID 0000.0001) %MON dynstat_uvel_mean            =   1.2242911535026E-03
(PID.TID 0000.0001) %MON dynstat_uvel_sd              =   1.5914773171361E-02
(PID.TID 0000.0001) %MON dynstat_uvel_del2            =   2.9573941276082E-03
(PID.TID 0000.0001) %MON dynstat_vvel_max             =   1.5176369748985E-01
(PID.TID 0000.0001) %MON dynstat_vvel_min             =  -1.1468406598578E-01
(PID.TID 0000.0001) %MON dynstat_vvel_mean            =   8.3407470533132E-05
(PID.TID 0000.0001) %MON dynstat_vvel_sd              =   1.0202689644248E-02
(PID.TID 0000.0001) %MON dynstat_vvel_del2            =   2.7421249467303E-03
(PID.TID 0000.0001) %MON dynstat_wvel_max             =   1.4512530066042E-04
(PID.TID 0000.0001) %MON dynstat_wvel_min             =  -1.7897791113084E-04
(PID.TID 0000.0001) %MON dynstat_wvel_mean            =  -2.9359261290589E-22
(PID.TID 0000.0001) %MON dynstat_wvel_sd              =   2.0307006412565E-05
(PID.TID 0000.0001) %MON dynstat_wvel_del2            =   7.5254525309036E-06
(PID.TID 0000.0001) %MON dynstat_theta_max            =   2.9691125017283E+01
(PID.TID 0000.0001) %MON dynstat_theta_min            =  -1.9895893139168E+00
(PID.TID 0000.0001) %MON dynstat_theta_mean           =   3.6197017712597E+00
(PID.TID 0000.0001) %MON dynstat_theta_sd             =   4.4142992989589E+00
(PID.TID 0000.0001) %MON dynstat_theta_del2           =   1.3711349786006E-01
(PID.TID 0000.0001) %MON dynstat_salt_max             =   3.7441950921850E+01
(PID.TID 0000.0001) %MON dynstat_salt_min             =   2.9766857553677E+01
(PID.TID 0000.0001) %MON dynstat_salt_mean            =   3.4717977261017E+01
(PID.TID 0000.0001) %MON dynstat_salt_sd              =   2.9619124715094E-01
(PID.TID 0000.0001) %MON dynstat_salt_del2            =   2.6114440590350E-02
(PID.TID 0000.0001) %MON extforcing_qnet_max          =   4.3165635681152E+02
(PID.TID 0000.0001) %MON extforcing_qnet_min          =  -1.7930098876953E+02
(PID.TID 0000.0001) %MON extforcing_qnet_mean         =  -1.6257798498834E+01
(PID.TID 0000.0001) %MON extforcing_qnet_sd           =   1.0664755624532E+02
(PID.TID 0000.0001) %MON extforcing_qnet_del2         =   9.5151582064678E+00
(PID.TID 0000.0001) %MON extforcing_qsw_max           =   0.0000000000000E+00
(PID.TID 0000.0001) %MON extforcing_qsw_min           =   0.0000000000000E+00
(PID.TID 0000.0001) %MON extforcing_qsw_mean          =   0.0000000000000E+00
(PID.TID 0000.0001) %MON extforcing_qsw_sd            =   0.0000000000000E+00
(PID.TID 0000.0001) %MON extforcing_qsw_del2          =   0.0000000000000E+00
(PID.TID 0000.0001) %MON extforcing_empmr_max         =   8.1231969772944E-08
(PID.TID 0000.0001) %MON extforcing_empmr_min         =  -7.6394888992581E-08
(PID.TID 0000.0001) %MON extforcing_empmr_mean        =   9.2498425389050E-10
(PID.TID 0000.0001) %MON extforcing_empmr_sd          =   2.8645556443893E-08
(PID.TID 0000.0001) %MON extforcing_empmr_del2        =   3.7173517306406E-09
(PID.TID 0000.0001) %MON extforcing_fu_max            =   2.7819065451622E-01
(PID.TID 0000.0001) %MON extforcing_fu_min            =  -1.7091440856457E-01
(PID.TID 0000.0001) %MON extforcing_fu_mean           =   1.6209868925915E-02
(PID.TID 0000.0001) %MON extforcing_fu_sd             =   8.9036646427792E-02
(PID.TID 0000.0001) %MON extforcing_fu_del2           =   7.5638757449303E-03
(PID.TID 0000.0001) %MON extforcing_fv_max            =   2.2349597960711E-01
(PID.TID 0000.0001) %MON extforcing_fv_min            =  -1.6686541736126E-01
(PID.TID 0000.0001) %MON extforcing_fv_mean           =  -1.0790884820323E-02
(PID.TID 0000.0001) %MON extforcing_fv_sd             =   3.9894253665073E-02
(PID.TID 0000.0001) %MON extforcing_fv_del2           =   4.3515560206315E-03
(PID.TID 0000.0001) %MON advcfl_uvel_max              =   5.1516169148945E-02
(PID.TID 0000.0001) %MON advcfl_vvel_max              =   2.9485252425200E-02
(PID.TID 0000.0001) %MON advcfl_wvel_max              =   5.4172194944842E-02
(PID.TID 0000.0001) %MON advcfl_W_hf_max              =   6.6770379815735E-02
(PID.TID 0000.0001) %MON pe_b_mean                    =   4.3213045829925E-04
(PID.TID 0000.0001) %MON ke_max                       =   2.0526961157247E-02
(PID.TID 0000.0001) %MON ke_mean                      =   1.6248578340135E-04
(PID.TID 0000.0001) %MON ke_vol                       =   1.3226782436723E+18
(PID.TID 0000.0001) %MON vort_r_min                   =  -3.1585216534111E-07
(PID.TID 0000.0001) %MON vort_r_max                   =   4.3127528007921E-07
(PID.TID 0000.0001) %MON vort_a_mean                  =  -2.5274806941809E-05
(PID.TID 0000.0001) %MON vort_a_sd                    =   7.3604497799471E-05
(PID.TID 0000.0001) %MON vort_p_mean                  =  -3.1845655225373E-05
(PID.TID 0000.0001) %MON vort_p_sd                    =   1.3162408760804E-04
(PID.TID 0000.0001) %MON surfExpan_theta_mean         =   2.6680629111110E-07
(PID.TID 0000.0001) %MON surfExpan_salt_mean          =   5.5762358594089E-08
(PID.TID 0000.0001) // =======================================================
(PID.TID 0000.0001) // End MONITOR dynamic field statistics
(PID.TID 0000.0001) // =======================================================
(PID.TID 0000.0001) // =======================================================
(PID.TID 0000.0001) // Begin MONITOR ptracer field statistics
(PID.TID 0000.0001) // =======================================================
(PID.TID 0000.0001) %MON trcstat_ptracer01_max        =   1.6438877473262E+06
(PID.TID 0000.0001) %MON trcstat_ptracer01_min        =   7.5678174360088E+03
(PID.TID 0000.0001) %MON trcstat_ptracer01_mean       =   1.6192101149593E+06
(PID.TID 0000.0001) %MON trcstat_ptracer01_sd         =   1.7922222633631E+05
(PID.TID 0000.0001) %MON trcstat_ptracer01_del2       =   6.3430214214320E+03
(PID.TID 0000.0001) // =======================================================
(PID.TID 0000.0001) // End MONITOR ptracers field statistics
(PID.TID 0000.0001) // =======================================================
time,SST,SSS,fu,fv,Q,E-P,i0,i1,a,b =   1.6416E+06  7.5972E-01  3.4675E+01 -3.2807E-02 -5.1974E-02  2.6240E+02  1.1202E-08     1     2  1.3333E-01  8.6667E-01
time,fu0,fu1,fu =   1.6416E+06 -3.5633E-02 -1.4435E-02 -3.2807E-02  1.333333333333333E-01  8.666666666666667E-01
 cg2d: Sum(rhs),rhsMax =   1.51870321995679E-01  1.38527723789575E+00
(PID.TID 0000.0001)                    cg2d_init_res =    5.37023009414217E-01
(PID.TID 0000.0001)                       cg2d_iters =   131
(PID.TID 0000.0001)                         cg2d_res =    8.80984007222267E-14
(PID.TID 0000.0001) // =======================================================
(PID.TID 0000.0001) // Begin MONITOR dynamic field statistics
(PID.TID 0000.0001) // =======================================================
(PID.TID 0000.0001) %MON time_tsnumber                =                    20
(PID.TID 0000.0001) %MON time_secondsf                =   1.7280000000000E+06
(PID.TID 0000.0001) %MON dynstat_eta_max              =   9.5058733257495E-01
(PID.TID 0000.0001) %MON dynstat_eta_min              =  -1.6149793443829E+00
(PID.TID 0000.0001) %MON dynstat_eta_mean             =  -1.4436057838209E-03
(PID.TID 0000.0001) %MON dynstat_eta_sd               =   5.7965828119278E-01
(PID.TID 0000.0001) %MON dynstat_eta_del2             =   1.7862821788609E-02
(PID.TID 0000.0001) %MON dynstat_uvel_max             =   1.9076739212738E-01
(PID.TID 0000.0001) %MON dynstat_uvel_min             =  -1.3847099833804E-01
(PID.TID 0000.0001) %MON dynstat_uvel_mean            =   1.3127273282819E-03
(PID.TID 0000.0001) %MON dynstat_uvel_sd              =   1.5246280760672E-02
(PID.TID 0000.0001) %MON dynstat_uvel_del2            =   2.8832540147985E-03
(PID.TID 0000.0001) %MON dynstat_vvel_max             =   1.6417118284305E-01
(PID.TID 0000.0001) %MON dynstat_vvel_min             =  -1.2085951609303E-01
(PID.TID 0000.0001) %MON dynstat_vvel_mean            =   6.6674430049910E-05
(PID.TID 0000.0001) %MON dynstat_vvel_sd              =   1.0578401766316E-02
(PID.TID 0000.0001) %MON dynstat_vvel_del2            =   2.7739779586723E-03
(PID.TID 0000.0001) %MON dynstat_wvel_max             =   1.5462323569673E-04
(PID.TID 0000.0001) %MON dynstat_wvel_min             =  -1.7081608729314E-04
(PID.TID 0000.0001) %MON dynstat_wvel_mean            =   7.0462227097413E-23
(PID.TID 0000.0001) %MON dynstat_wvel_sd              =   2.0552651225207E-05
(PID.TID 0000.0001) %MON dynstat_wvel_del2            =   7.4988674817165E-06
(PID.TID 0000.0001) %MON dynstat_theta_max            =   2.9695877062665E+01
(PID.TID 0000.0001) %MON dynstat_theta_min            =  -1.9888844837711E+00
(PID.TID 0000.0001) %MON dynstat_theta_mean           =   3.6197595842807E+00
(PID.TID 0000.0001) %MON dynstat_theta_sd             =   4.4143512042552E+00
(PID.TID 0000.0001) %MON dynstat_theta_del2           =   1.3703452633654E-01
(PID.TID 0000.0001) %MON dynstat_salt_max             =   3.7443099162534E+01
(PID.TID 0000.0001) %MON dynstat_salt_min             =   2.9771641993989E+01
(PID.TID 0000.0001) %MON dynstat_salt_mean            =   3.4717976502167E+01
(PID.TID 0000.0001) %MON dynstat_salt_sd              =   2.9619210834324E-01
(PID.TID 0000.0001) %MON dynstat_salt_del2            =   2.6111528261284E-02
(PID.TID 0000.0001) %MON extforcing_qnet_max          =   4.2833727010091E+02
(PID.TID 0000.0001) %MON extforcing_qnet_min          =  -1.7906146952311E+02
(PID.TID 0000.0001) %MON extforcing_qnet_mean         =  -1.6172889331431E+01
(PID.TID 0000.0001) %MON extforcing_qnet_sd           =   1.0557973223764E+02
(PID.TID 0000.0001) %MON extforcing_qnet_del2         =   9.4654256987228E+00
(PID.TID 0000.0001) %MON extforcing_qsw_max           =   0.0000000000000E+00
(PID.TID 0000.0001) %MON extforcing_qsw_min           =   0.0000000000000E+00
(PID.TID 0000.0001) %MON extforcing_qsw_mean          =   0.0000000000000E+00
(PID.TID 0000.0001) %MON extforcing_qsw_sd            =   0.0000000000000E+00
(PID.TID 0000.0001) %MON extforcing_qsw_del2          =   0.0000000000000E+00
(PID.TID 0000.0001) %MON extforcing_empmr_max         =   8.0917880040943E-08
(PID.TID 0000.0001) %MON extforcing_empmr_min         =  -7.6474533254138E-08
(PID.TID 0000.0001) %MON extforcing_empmr_mean        =   9.2566665115047E-10
(PID.TID 0000.0001) %MON extforcing_empmr_sd          =   2.8597523558275E-08
(PID.TID 0000.0001) %MON extforcing_empmr_del2        =   3.7075491096341E-09
(PID.TID 0000.0001) %MON extforcing_fu_max            =   2.7799457907677E-01
(PID.TID 0000.0001) %MON extforcing_fu_min            =  -1.7257433235645E-01
(PID.TID 0000.0001) %MON extforcing_fu_mean           =   1.6355606392701E-02
(PID.TID 0000.0001) %MON extforcing_fu_sd             =   8.8972595613597E-02
(PID.TID 0000.0001) %MON extforcing_fu_del2           =   7.5177876211075E-03
(PID.TID 0000.0001) %MON extforcing_fv_max            =   2.2028753260771E-01
(PID.TID 0000.0001) %MON extforcing_fv_min            =  -1.6527313192685E-01
(PID.TID 0000.0001) %MON extforcing_fv_mean           =  -1.0787363496586E-02
(PID.TID 0000.0001) %MON extforcing_fv_sd             =   3.9757493355444E-02
(PID.TID 0000.0001) %MON extforcing_fv_del2           =   4.2970380436240E-03
(PID.TID 0000.0001) %MON advcfl_uvel_max              =   4.9873246073412E-02
(PID.TID 0000.0001) %MON advcfl_vvel_max              =   3.1895827837186E-02
(PID.TID 0000.0001) %MON advcfl_wvel_max              =   5.1566056532345E-02
(PID.TID 0000.0001) %MON advcfl_W_hf_max              =   6.5156079528322E-02
(PID.TID 0000.0001) %MON pe_b_mean                    =   4.2995992972750E-04
(PID.TID 0000.0001) %MON ke_max                       =   1.9746669144418E-02
(PID.TID 0000.0001) %MON ke_mean                      =   1.5662800460229E-04
(PID.TID 0000.0001) %MON ke_vol                       =   1.3226782436723E+18
(PID.TID 0000.0001) %MON vort_r_min                   =  -2.7836690626240E-07
(PID.TID 0000.0001) %MON vort_r_max                   =   4.2365400966000E-07
(PID.TID 0000.0001) %MON vort_a_mean                  =  -2.5274806986544E-05
(PID.TID 0000.0001) %MON vort_a_sd                    =   7.3604516543458E-05
(PID.TID 0000.0001) %MON vort_p_mean                  =  -3.1845655281738E-05
(PID.TID 0000.0001) %MON vort_p_sd                    =   1.3162434902039E-04
(PID.TID 0000.0001) %MON surfExpan_theta_mean         =   1.7236141227070E-07
(PID.TID 0000.0001) %MON surfExpan_salt_mean          =   6.8994803076441E-08
(PID.TID 0000.0001) // =======================================================
(PID.TID 0000.0001) // End MONITOR dynamic field statistics
(PID.TID 0000.0001) // =======================================================
(PID.TID 0000.0001) // Time-average data written, t-step        20
(PID.TID 0000.0001) 
(PID.TID 0000.0001) // PTRACER time-average data written, t-step        20
(PID.TID 0000.0001) 
(PID.TID 0000.0001) // =======================================================
(PID.TID 0000.0001) // Begin MONITOR ptracer field statistics
(PID.TID 0000.0001) // =======================================================
(PID.TID 0000.0001) %MON trcstat_ptracer01_max        =   1.7305132698829E+06
(PID.TID 0000.0001) %MON trcstat_ptracer01_min        =   8.0579749904864E+03
(PID.TID 0000.0001) %MON trcstat_ptracer01_mean       =   1.7043374470546E+06
(PID.TID 0000.0001) %MON trcstat_ptracer01_sd         =   1.8867316529500E+05
(PID.TID 0000.0001) %MON trcstat_ptracer01_del2       =   6.7538765299312E+03
(PID.TID 0000.0001) // =======================================================
(PID.TID 0000.0001) // End MONITOR ptracers field statistics
(PID.TID 0000.0001) // =======================================================
(PID.TID 0000.0001) %CHECKPOINT        20 0000000020
(PID.TID 0000.0001)   Seconds in section "ALL                    [THE_MODEL_MAIN]":
(PID.TID 0000.0001)           User time:  42.9804648
(PID.TID 0000.0001)         System time:  1.12782804
(PID.TID 0000.0001)     Wall clock time:  44.3338819
(PID.TID 0000.0001)          No. starts: 1
(PID.TID 0000.0001)           No. stops: 1
(PID.TID 0000.0001)   Seconds in section "INITIALISE_FIXED       [THE_MODEL_MAIN]":
(PID.TID 0000.0001)           User time:  0.225965997
(PID.TID 0000.0001)         System time:  0.0659899977
(PID.TID 0000.0001)     Wall clock time:  0.324428082
(PID.TID 0000.0001)          No. starts: 1
(PID.TID 0000.0001)           No. stops: 1
(PID.TID 0000.0001)   Seconds in section "THE_MAIN_LOOP          [THE_MODEL_MAIN]":
(PID.TID 0000.0001)           User time:  42.7544988
(PID.TID 0000.0001)         System time:  1.06183805
(PID.TID 0000.0001)     Wall clock time:  44.0092349
(PID.TID 0000.0001)          No. starts: 1
(PID.TID 0000.0001)           No. stops: 1
(PID.TID 0000.0001)   Seconds in section "INITIALISE_VARIA    [THE_MAIN_LOOP]":
(PID.TID 0000.0001)           User time:  0.60490799
(PID.TID 0000.0001)         System time:  0.109982997
(PID.TID 0000.0001)     Wall clock time:  0.803405046
(PID.TID 0000.0001)          No. starts: 1
(PID.TID 0000.0001)           No. stops: 1
(PID.TID 0000.0001)   Seconds in section "MAIN LOOP           [THE_MAIN_LOOP]":
(PID.TID 0000.0001)           User time:  42.1495908
(PID.TID 0000.0001)         System time:  0.951855049
(PID.TID 0000.0001)     Wall clock time:  43.2056971
(PID.TID 0000.0001)          No. starts: 1
(PID.TID 0000.0001)           No. stops: 1
(PID.TID 0000.0001)   Seconds in section "FORWARD_STEP        [THE_MAIN_LOOP]":
(PID.TID 0000.0001)           User time:  42.1495908
(PID.TID 0000.0001)         System time:  0.951855049
(PID.TID 0000.0001)     Wall clock time:  43.2048376
(PID.TID 0000.0001)          No. starts: 20
(PID.TID 0000.0001)           No. stops: 20
(PID.TID 0000.0001)   Seconds in section "LOAD_FIELDS_DRIVER  [FORWARD_STEP]":
(PID.TID 0000.0001)           User time:  0.0499889851
(PID.TID 0000.0001)         System time:  0.00299999118
(PID.TID 0000.0001)     Wall clock time:  0.0909764767
(PID.TID 0000.0001)          No. starts: 20
(PID.TID 0000.0001)           No. stops: 20
(PID.TID 0000.0001)   Seconds in section "EXTERNAL_FLDS_LOAD [LOAD_FLDS_DRIVER]":
(PID.TID 0000.0001)           User time:  0.046990633
(PID.TID 0000.0001)         System time:  0.00299999118
(PID.TID 0000.0001)     Wall clock time:  0.0893194675
(PID.TID 0000.0001)          No. starts: 20
(PID.TID 0000.0001)           No. stops: 20
(PID.TID 0000.0001)   Seconds in section "DO_ATMOSPHERIC_PHYS [FORWARD_STEP]":
(PID.TID 0000.0001)           User time:  0.
(PID.TID 0000.0001)         System time:  0.
(PID.TID 0000.0001)     Wall clock time:  0.000803232193
(PID.TID 0000.0001)          No. starts: 20
(PID.TID 0000.0001)           No. stops: 20
(PID.TID 0000.0001)   Seconds in section "DO_OCEANIC_PHYS     [FORWARD_STEP]":
(PID.TID 0000.0001)           User time:  4.07038265
(PID.TID 0000.0001)         System time:  0.00500001013
(PID.TID 0000.0001)     Wall clock time:  4.08747911
(PID.TID 0000.0001)          No. starts: 20
(PID.TID 0000.0001)           No. stops: 20
(PID.TID 0000.0001)   Seconds in section "THERMODYNAMICS      [FORWARD_STEP]":
(PID.TID 0000.0001)           User time:  13.5029532
(PID.TID 0000.0001)         System time:  0.02199696
(PID.TID 0000.0001)     Wall clock time:  13.5262091
(PID.TID 0000.0001)          No. starts: 20
(PID.TID 0000.0001)           No. stops: 20
(PID.TID 0000.0001)   Seconds in section "DYNAMICS            [FORWARD_STEP]":
(PID.TID 0000.0001)           User time:  10.2624384
(PID.TID 0000.0001)         System time:  0.0139970332
(PID.TID 0000.0001)     Wall clock time:  10.2874007
(PID.TID 0000.0001)          No. starts: 20
(PID.TID 0000.0001)           No. stops: 20
(PID.TID 0000.0001)   Seconds in section "SOLVE_FOR_PRESSURE  [FORWARD_STEP]":
(PID.TID 0000.0001)           User time:  5.86310148
(PID.TID 0000.0001)         System time:  0.00599898398
(PID.TID 0000.0001)     Wall clock time:  5.87654138
(PID.TID 0000.0001)          No. starts: 20
(PID.TID 0000.0001)           No. stops: 20
(PID.TID 0000.0001)   Seconds in section "MOM_CORRECTION_STEP [FORWARD_STEP]":
(PID.TID 0000.0001)           User time:  0.764888525
(PID.TID 0000.0001)         System time:  0.00199997425
(PID.TID 0000.0001)     Wall clock time:  0.764414787
(PID.TID 0000.0001)          No. starts: 20
(PID.TID 0000.0001)           No. stops: 20
(PID.TID 0000.0001)   Seconds in section "UPDATE_ETAH         [FORWARD_STEP]":
(PID.TID 0000.0001)           User time:  0.00799608231
(PID.TID 0000.0001)         System time:  0.
(PID.TID 0000.0001)     Wall clock time:  0.00691461563
(PID.TID 0000.0001)          No. starts: 20
(PID.TID 0000.0001)           No. stops: 20
(PID.TID 0000.0001)   Seconds in section "TRC_CORRECTION_STEP [FORWARD_STEP]":
(PID.TID 0000.0001)           User time:  0.227970362
(PID.TID 0000.0001)         System time:  0.
(PID.TID 0000.0001)     Wall clock time:  0.230829
(PID.TID 0000.0001)          No. starts: 20
(PID.TID 0000.0001)           No. stops: 20
(PID.TID 0000.0001)   Seconds in section "BLOCKING_EXCHANGES  [FORWARD_STEP]":
(PID.TID 0000.0001)           User time:  0.155971289
(PID.TID 0000.0001)         System time:  0.000999987125
(PID.TID 0000.0001)     Wall clock time:  0.158234358
(PID.TID 0000.0001)          No. starts: 20
(PID.TID 0000.0001)           No. stops: 20
(PID.TID 0000.0001)   Seconds in section "DO_STATEVARS_TAVE   [FORWARD_STEP]":
(PID.TID 0000.0001)           User time:  2.20667028
(PID.TID 0000.0001)         System time:  0.00199998915
(PID.TID 0000.0001)     Wall clock time:  2.20556593
(PID.TID 0000.0001)          No. starts: 20
(PID.TID 0000.0001)           No. stops: 20
(PID.TID 0000.0001)   Seconds in section "MONITOR             [FORWARD_STEP]":
(PID.TID 0000.0001)           User time:  3.26550412
(PID.TID 0000.0001)         System time:  0.00699807703
(PID.TID 0000.0001)     Wall clock time:  3.27468324
(PID.TID 0000.0001)          No. starts: 20
(PID.TID 0000.0001)           No. stops: 20
(PID.TID 0000.0001)   Seconds in section "DO_THE_MODEL_IO     [FORWARD_STEP]":
(PID.TID 0000.0001)           User time:  1.52077031
(PID.TID 0000.0001)         System time:  0.696894005
(PID.TID 0000.0001)     Wall clock time:  2.24611735
(PID.TID 0000.0001)          No. starts: 20
(PID.TID 0000.0001)           No. stops: 20
(PID.TID 0000.0001)   Seconds in section "DO_WRITE_PICKUP     [FORWARD_STEP]":
(PID.TID 0000.0001)           User time:  0.240962982
(PID.TID 0000.0001)         System time:  0.18997103
(PID.TID 0000.0001)     Wall clock time:  0.436191797
(PID.TID 0000.0001)          No. starts: 20
(PID.TID 0000.0001)           No. stops: 20
(PID.TID 0000.0001)   Seconds in section "DO_WRITE_PICKUP        [THE_MODEL_MAIN]":
(PID.TID 0000.0001)           User time:  0.
(PID.TID 0000.0001)         System time:  0.
(PID.TID 0000.0001)     Wall clock time:  4.10079956E-05
(PID.TID 0000.0001)          No. starts: 1
(PID.TID 0000.0001)           No. stops: 1
(PID.TID 0000.0001) // ======================================================
(PID.TID 0000.0001) // Tile <-> Tile communication statistics
(PID.TID 0000.0001) // ======================================================
(PID.TID 0000.0001) // o Tile number: 000001
(PID.TID 0000.0001) //         No. X exchanges =              0
(PID.TID 0000.0001) //            Max. X spins =              0
(PID.TID 0000.0001) //            Min. X spins =     1000000000
(PID.TID 0000.0001) //          Total. X spins =              0
(PID.TID 0000.0001) //            Avg. X spins =       0.00E+00
(PID.TID 0000.0001) //         No. Y exchanges =              0
(PID.TID 0000.0001) //            Max. Y spins =              0
(PID.TID 0000.0001) //            Min. Y spins =     1000000000
(PID.TID 0000.0001) //          Total. Y spins =              0
(PID.TID 0000.0001) //            Avg. Y spins =       0.00E+00
(PID.TID 0000.0001) // o Tile number: 000002
(PID.TID 0000.0001) //         No. X exchanges =              0
(PID.TID 0000.0001) //            Max. X spins =              0
(PID.TID 0000.0001) //            Min. X spins =     1000000000
(PID.TID 0000.0001) //          Total. X spins =              0
(PID.TID 0000.0001) //            Avg. X spins =       0.00E+00
(PID.TID 0000.0001) //         No. Y exchanges =              0
(PID.TID 0000.0001) //            Max. Y spins =              0
(PID.TID 0000.0001) //            Min. Y spins =     1000000000
(PID.TID 0000.0001) //          Total. Y spins =              0
(PID.TID 0000.0001) //            Avg. Y spins =       0.00E+00
(PID.TID 0000.0001) // o Thread number: 000001
(PID.TID 0000.0001) //            No. barriers =          43470
(PID.TID 0000.0001) //      Max. barrier spins =              1
(PID.TID 0000.0001) //      Min. barrier spins =              1
(PID.TID 0000.0001) //     Total barrier spins =          43470
(PID.TID 0000.0001) //      Avg. barrier spins =       1.00E+00
