(PID.TID 0000.0001) 
(PID.TID 0000.0001) // ======================================================
(PID.TID 0000.0001) //                      MITgcm UV
(PID.TID 0000.0001) //                      =========
(PID.TID 0000.0001) // ======================================================
(PID.TID 0000.0001) // execution environment starting up...
(PID.TID 0000.0001) 
(PID.TID 0000.0001) // MITgcmUV version:  checkpoint62w
(PID.TID 0000.0001) // Build user:        jmc
(PID.TID 0000.0001) // Build host:        baudelaire
(PID.TID 0000.0001) // Build date:        Thu Apr 28 09:13:06 EDT 2011
(PID.TID 0000.0001) 
(PID.TID 0000.0001) // =======================================================
(PID.TID 0000.0001) // Execution Environment parameter file "eedata"
(PID.TID 0000.0001) // =======================================================
(PID.TID 0000.0001) ># Example "eedata" file
(PID.TID 0000.0001) ># Lines beginning "#" are comments
(PID.TID 0000.0001) ># nTx - No. threads per process in X
(PID.TID 0000.0001) ># nTy - No. threads per process in Y
(PID.TID 0000.0001) > &EEPARMS
(PID.TID 0000.0001) > useCubedSphereExchange=.TRUE.,
(PID.TID 0000.0001) ># Activate one line below to support 2, 3 or 6 way multi-threading
(PID.TID 0000.0001) >#nTx=2,
(PID.TID 0000.0001) >#nTx=3,
(PID.TID 0000.0001) >#nTx=6,
(PID.TID 0000.0001) > &
(PID.TID 0000.0001) ># Note: Some systems use & as the
(PID.TID 0000.0001) ># namelist terminator. Other systems
(PID.TID 0000.0001) ># use a / character (as shown here).
(PID.TID 0000.0001) 
(PID.TID 0000.0001) // =======================================================
(PID.TID 0000.0001) // Computational Grid Specification ( see files "SIZE.h" )
(PID.TID 0000.0001) //                                  ( and "eedata"       )
(PID.TID 0000.0001) // =======================================================
(PID.TID 0000.0001)      nPx =    1 ; /* No. processes in X */
(PID.TID 0000.0001)      nPy =    1 ; /* No. processes in Y */
(PID.TID 0000.0001)      nSx =    6 ; /* No. tiles in X per process */
(PID.TID 0000.0001)      nSy =    1 ; /* No. tiles in Y per process */
(PID.TID 0000.0001)      sNx =   32 ; /* Tile size in X */
(PID.TID 0000.0001)      sNy =   32 ; /* Tile size in Y */
(PID.TID 0000.0001)      OLx =    2 ; /* Tile overlap distance in X */
(PID.TID 0000.0001)      OLy =    2 ; /* Tile overlap distance in Y */
(PID.TID 0000.0001)      nTx =    1 ; /* No. threads in X per process */
(PID.TID 0000.0001)      nTy =    1 ; /* No. threads in Y per process */
(PID.TID 0000.0001)       Nr =   40 ; /* No. levels in the vertical   */
(PID.TID 0000.0001)       Nx =  192 ; /* Total domain size in X ( = nPx*nSx*sNx ) */
(PID.TID 0000.0001)       Ny =   32 ; /* Total domain size in Y ( = nPy*nSy*sNy ) */
(PID.TID 0000.0001)   nTiles =    6 ; /* Total no. tiles per process ( = nSx*nSy ) */
(PID.TID 0000.0001)   nProcs =    1 ; /* Total no. processes ( = nPx*nPy ) */
(PID.TID 0000.0001) nThreads =    1 ; /* Total no. threads per process ( = nTx*nTy ) */
(PID.TID 0000.0001) usingMPI =    F ; /* Flag used to control whether MPI is in use */
(PID.TID 0000.0001)                   /*  note: To execute a program with MPI calls */
(PID.TID 0000.0001)                   /*  it must be launched appropriately e.g     */
(PID.TID 0000.0001)                   /*  "mpirun -np 64 ......"                    */
(PID.TID 0000.0001) useCoupler=    F ;/* Flag used to control communications with   */
(PID.TID 0000.0001)                   /*  other model components, through a coupler */
(PID.TID 0000.0001) printMapIncludesZeros=    F ; /* print zeros in Std.Output maps */
(PID.TID 0000.0001) maxLengthPrt1D=   65 /* maxLength of 1D array printed to StdOut */
(PID.TID 0000.0001) 
(PID.TID 0000.0001) // ======================================================
(PID.TID 0000.0001) // Mapping of tiles to threads
(PID.TID 0000.0001) // ======================================================
(PID.TID 0000.0001) // -o- Thread   1, tiles (   1:   6,   1:   1)
(PID.TID 0000.0001) 
(PID.TID 0000.0001) W2_READPARMS: file data.exch2 not found
(PID.TID 0000.0001) => use W2_EXCH2 default: regular 6-facets Cube
(PID.TID 0000.0001) W2_useE2ioLayOut=    T ;/* T: use Exch2 glob IO map; F: use model default */
(PID.TID 0000.0001) W2_mapIO        =  -1 ; /* select option for Exch2 global-IO map */
(PID.TID 0000.0001) W2_printMsg     =  -1 ; /* select option for printing information */
(PID.TID 0000.0001) ===== Start setting W2 TOPOLOGY:
(PID.TID 0000.0001)  write to log-file: w2_tile_topology.0000.log
(PID.TID 0000.0001) =====       setting W2 TOPOLOGY: Done
(PID.TID 0000.0001) 
(PID.TID 0000.0001) DEBUG_MSG: ENTERED S/R THE_MODEL_MAIN
(PID.TID 0000.0001) DEBUG_MSG: CALLING S/R INITIALISE_FIXED
(PID.TID 0000.0001)  INI_PARMS: opening model parameter file "data"
(PID.TID 0000.0001)  OPEN_COPY_DATA_FILE: opening file data
(PID.TID 0000.0001) // =======================================================
(PID.TID 0000.0001) // Parameter file "data"
(PID.TID 0000.0001) // =======================================================
(PID.TID 0000.0001) ># ====================
(PID.TID 0000.0001) ># | Model parameters |
(PID.TID 0000.0001) ># ====================
(PID.TID 0000.0001) >#
(PID.TID 0000.0001) ># Continuous equation parameters
(PID.TID 0000.0001) > &PARM01
(PID.TID 0000.0001) > tRef=295.1, 295.3, 295.4, 295.6, 295.8, 296.0, 296.2, 296.4, 296.6, 296.8,
(PID.TID 0000.0001) >      297.0, 297.3, 297.5, 297.7, 298.0, 298.3, 298.5, 298.8, 299.1, 299.5,
(PID.TID 0000.0001) >      299.8, 300.1, 300.5, 300.9, 301.5, 302.3, 303.4, 304.9, 306.8, 309.4,
(PID.TID 0000.0001) >      312.9, 317.8, 324.7, 336.1, 352.6, 373.4, 401.2, 441.6, 511.0, 699.5,
(PID.TID 0000.0001) >#tRef=295.2, 295.5, 295.9, 296.3, 296.7, 297.1, 297.6, 298.1, 298.7, 299.3,
(PID.TID 0000.0001) >#     300.0, 300.7, 301.9, 304.1, 308.0, 315.1, 329.5, 362.3, 419.2, 573.8,
(PID.TID 0000.0001) >#tRef=295.3, 296.1, 296.9, 297.9, 299.0, 300.3, 302.8, 311.0, 343.9, 470.7,
(PID.TID 0000.0001) > sRef=40*0.0,
(PID.TID 0000.0001) >#sRef=1.0E-3,5.0E-4,1.E-4,5*1.E-6,1.E-8,1.E-9,
(PID.TID 0000.0001) > viscAr=0.E1,
(PID.TID 0000.0001) > viscAh=0.E6,
(PID.TID 0000.0001) > viscA4=0.E17,
(PID.TID 0000.0001) > no_slip_sides=.FALSE.,
(PID.TID 0000.0001) > no_slip_bottom=.FALSE.,
(PID.TID 0000.0001) > diffKhT=0.E3,
(PID.TID 0000.0001) > diffKrT=0.,
(PID.TID 0000.0001) > diffK4T=0.E17,
(PID.TID 0000.0001) > diffKrS=0.E2,
(PID.TID 0000.0001) > diffKhS=0.E3,
(PID.TID 0000.0001) > diffK4S=0.E17,
(PID.TID 0000.0001) > buoyancyRelation='ATMOSPHERIC',
(PID.TID 0000.0001) > eosType='IDEALGAS',
(PID.TID 0000.0001) > atm_Rq=0.6078,
(PID.TID 0000.0001) >#Integr_GeoPot=2,
(PID.TID 0000.0001) > rotationPeriod=86400.,
(PID.TID 0000.0001) > gravity=9.81,
(PID.TID 0000.0001) > rhonil=1.0,
(PID.TID 0000.0001) > rhoConst=1.0,
(PID.TID 0000.0001) > rigidLid=.FALSE.,
(PID.TID 0000.0001) > implicitFreeSurface=.TRUE.,
(PID.TID 0000.0001) > exactConserv=.TRUE.,
(PID.TID 0000.0001) > uniformLin_PhiSurf=.FALSE.,
(PID.TID 0000.0001) > staggerTimeStep=.TRUE.,
(PID.TID 0000.0001) > readBinaryPrec=64,
(PID.TID 0000.0001) > writeBinaryPrec=64,
(PID.TID 0000.0001) > hFacMin=0.5,
(PID.TID 0000.0001) > nonlinFreeSurf=4,
(PID.TID 0000.0001) > select_rStar=2,
(PID.TID 0000.0001) > saltAdvScheme=2,
(PID.TID 0000.0001) > vectorInvariantMomentum=.TRUE.,
(PID.TID 0000.0001) >#- here are the new things:
(PID.TID 0000.0001) > useAbsVorticity=.TRUE.,
(PID.TID 0000.0001) > SadournyCoriolis=.TRUE.,
(PID.TID 0000.0001) > selectKEscheme=3,
(PID.TID 0000.0001) > &
(PID.TID 0000.0001) >
(PID.TID 0000.0001) ># Elliptic solver parameters
(PID.TID 0000.0001) > &PARM02
(PID.TID 0000.0001) > cg2dMaxIters=200,
(PID.TID 0000.0001) >#cg2dTargetResidual=1.E-12,
(PID.TID 0000.0001) > cg2dTargetResWunit=1.E-17,
(PID.TID 0000.0001) > &
(PID.TID 0000.0001) >
(PID.TID 0000.0001) ># Time stepping parameters
(PID.TID 0000.0001) > &PARM03
(PID.TID 0000.0001) > nIter0=0,
(PID.TID 0000.0001) > nTimeSteps=6,
(PID.TID 0000.0001) >#endTime=864000.0,
(PID.TID 0000.0001) > deltaT=120.0,
(PID.TID 0000.0001) > forcing_In_AB=.FALSE.,
(PID.TID 0000.0001) > abEps=0.1,
(PID.TID 0000.0001) > cAdjFreq=0.,
(PID.TID 0000.0001) > pChkptFreq=0.0,
(PID.TID 0000.0001) > ChkptFreq=0.0,
(PID.TID 0000.0001) > dumpFreq=0.0,
(PID.TID 0000.0001) > dumpInitAndLast=.FALSE.,
(PID.TID 0000.0001) > monitorFreq=120.,
(PID.TID 0000.0001) > taveFreq=0.0,
(PID.TID 0000.0001) > tave_lastiter=1.,
(PID.TID 0000.0001) ># for daily testing: to save disk space
(PID.TID 0000.0001) > writePickupAtEnd=.FALSE.,
(PID.TID 0000.0001) > &
(PID.TID 0000.0001) >
(PID.TID 0000.0001) ># Gridding parameters
(PID.TID 0000.0001) > &PARM04
(PID.TID 0000.0001) > usingCurvilinearGrid=.TRUE.,
(PID.TID 0000.0001) > horizGridFile='dxC1_dXYa',
(PID.TID 0000.0001) > radius_fromHorizGrid=6370.E3,
(PID.TID 0000.0001) >#delR=40*0.25325E4,
(PID.TID 0000.0001) >#Ro_SeaLevel=1.013E5,
(PID.TID 0000.0001) > delR=40*0.25E4,
(PID.TID 0000.0001) > Ro_SeaLevel=1.E5,
(PID.TID 0000.0001) > &
(PID.TID 0000.0001) >
(PID.TID 0000.0001) ># Input datasets
(PID.TID 0000.0001) > &PARM05
(PID.TID 0000.0001) > topoFile='top19232.data',
(PID.TID 0000.0001) > uVelInitFile='uVel_cs2-32x40.d19930110z06.bin',
(PID.TID 0000.0001) > vVelInitFile='vVel_cs2-32x40.d19930110z06.bin',
(PID.TID 0000.0001) > hydrogThetaFile='TH_cs2-32x40.d19930110z06.bin',
(PID.TID 0000.0001) > hydrogSaltFile='SHwet_cs32x40.d19930110z06.bin',
(PID.TID 0000.0001) > &
(PID.TID 0000.0001) 
(PID.TID 0000.0001)  INI_PARMS ; starts to read PARM01
(PID.TID 0000.0001)  INI_PARMS ; read PARM01 : OK
(PID.TID 0000.0001)  INI_PARMS ; starts to read PARM02
(PID.TID 0000.0001)  INI_PARMS ; read PARM02 : OK
(PID.TID 0000.0001)  INI_PARMS ; starts to read PARM03
(PID.TID 0000.0001)  INI_PARMS ; read PARM03 : OK
(PID.TID 0000.0001)  INI_PARMS ; starts to read PARM04
(PID.TID 0000.0001)  INI_PARMS ; read PARM04 : OK
(PID.TID 0000.0001)  INI_PARMS ; starts to read PARM05
(PID.TID 0000.0001)  INI_PARMS ; read PARM05 : OK
(PID.TID 0000.0001)  INI_PARMS: finished reading file "data"
(PID.TID 0000.0001)  PACKAGES_BOOT: opening data.pkg
(PID.TID 0000.0001)  OPEN_COPY_DATA_FILE: opening file data.pkg
(PID.TID 0000.0001) // =======================================================
(PID.TID 0000.0001) // Parameter file "data.pkg"
(PID.TID 0000.0001) // =======================================================
(PID.TID 0000.0001) ># Packages
(PID.TID 0000.0001) > &PACKAGES
(PID.TID 0000.0001) > useFIZHI=.TRUE.,
(PID.TID 0000.0001) > useGRIDALT=.TRUE.,
(PID.TID 0000.0001) > useSHAP_FILT=.TRUE.,
(PID.TID 0000.0001) > useDIAGNOSTICS=.TRUE.,
(PID.TID 0000.0001) > &
(PID.TID 0000.0001) 
(PID.TID 0000.0001)  PACKAGES_BOOT: finished reading data.pkg
(PID.TID 0000.0001)  SHAP_FILT_READPARMS: opening data.shap
(PID.TID 0000.0001)  OPEN_COPY_DATA_FILE: opening file data.shap
(PID.TID 0000.0001) // =======================================================
(PID.TID 0000.0001) // Parameter file "data.shap"
(PID.TID 0000.0001) // =======================================================
(PID.TID 0000.0001) ># Shapiro Filter parameters
(PID.TID 0000.0001) > &SHAP_PARM01
(PID.TID 0000.0001) > shap_filt_uvStar=.FALSE.,
(PID.TID 0000.0001) > shap_filt_TrStagg=.TRUE.,
(PID.TID 0000.0001) > Shap_funct=2,
(PID.TID 0000.0001) > nShapT=4,
(PID.TID 0000.0001) > nShapUV=4,
(PID.TID 0000.0001) > nShapTrPhys=0,
(PID.TID 0000.0001) > nShapUVPhys=0,
(PID.TID 0000.0001) >#Shap_TrLength=115000.,
(PID.TID 0000.0001) >#Shap_uvLength=110000.,
(PID.TID 0000.0001) > Shap_Trtau=5400.,
(PID.TID 0000.0001) > Shap_uvtau=1800.,
(PID.TID 0000.0001) > &
(PID.TID 0000.0001) 
(PID.TID 0000.0001)  SHAP_FILT_READPARMS: finished reading data.shap
(PID.TID 0000.0001) Shap_funct =   /* select Shapiro filter function */
(PID.TID 0000.0001)                       2
(PID.TID 0000.0001)     ;
(PID.TID 0000.0001) nShapT =   /* power of Shapiro filter for Temperat */
(PID.TID 0000.0001)                       4
(PID.TID 0000.0001)     ;
(PID.TID 0000.0001) nShapS =   /* power of Shapiro filter for Salinity */
(PID.TID 0000.0001)                       4
(PID.TID 0000.0001)     ;
(PID.TID 0000.0001) nShapUV =   /* power of Shapiro filter for momentum */
(PID.TID 0000.0001)                       4
(PID.TID 0000.0001)     ;
(PID.TID 0000.0001) shap_filt_uvStar = /* apply filter before Press. Solver */
(PID.TID 0000.0001)                   F
(PID.TID 0000.0001)     ;
(PID.TID 0000.0001) shap_filt_TrStagg = /* filter T,S before calc PhiHyd (staggerTimeStep) */
(PID.TID 0000.0001)                   T
(PID.TID 0000.0001)     ;
(PID.TID 0000.0001) Shap_alwaysExchUV = /* always exch(U,V)    nShapUV times*/
(PID.TID 0000.0001)                   F
(PID.TID 0000.0001)     ;
(PID.TID 0000.0001) Shap_alwaysExchTr = /* always exch(Tracer) nShapTr times*/
(PID.TID 0000.0001)                   F
(PID.TID 0000.0001)     ;
(PID.TID 0000.0001) nShapTrPhys =   /* power of physical-space filter (Tracer) */
(PID.TID 0000.0001)                       0
(PID.TID 0000.0001)     ;
(PID.TID 0000.0001) nShapUVPhys =   /* power of physical-space filter (Momentum) */
(PID.TID 0000.0001)                       0
(PID.TID 0000.0001)     ;
(PID.TID 0000.0001) Shap_Trtau =   /* time scale of Shapiro filter (Tracer) */
(PID.TID 0000.0001)                 5.400000000000000E+03
(PID.TID 0000.0001)     ;
(PID.TID 0000.0001) Shap_TrLength =   /* Length scale of Shapiro filter (Tracer) */
(PID.TID 0000.0001)                 0.000000000000000E+00
(PID.TID 0000.0001)     ;
(PID.TID 0000.0001) Shap_uvtau =   /* time scale of Shapiro filter (Momentum) */
(PID.TID 0000.0001)                 1.800000000000000E+03
(PID.TID 0000.0001)     ;
(PID.TID 0000.0001) Shap_uvLength =   /* Length scale of Shapiro filter (Momentum) */
(PID.TID 0000.0001)                 0.000000000000000E+00
(PID.TID 0000.0001)     ;
(PID.TID 0000.0001) Shap_noSlip =  /* No-slip parameter (0=Free-slip ; 1=No-slip)*/
(PID.TID 0000.0001)                 0.000000000000000E+00
(PID.TID 0000.0001)     ;
(PID.TID 0000.0001) Shap_diagFreq =   /* Frequency^-1 for diagnostic output (s)*/
(PID.TID 0000.0001)                 0.000000000000000E+00
(PID.TID 0000.0001)     ;
(PID.TID 0000.0001)  FIZHI_READPARMS: opening data.fizhi
(PID.TID 0000.0001)  OPEN_COPY_DATA_FILE: opening file data.fizhi
(PID.TID 0000.0001) // =======================================================
(PID.TID 0000.0001) // Parameter file "data.fizhi"
(PID.TID 0000.0001) // =======================================================
(PID.TID 0000.0001) ># Fizhi Parameters
(PID.TID 0000.0001) > &fizhi_list
(PID.TID 0000.0001) > nhmsbegin=060000,
(PID.TID 0000.0001) > nymdbegin=19930110,
(PID.TID 0000.0001) > runlength=0.003,
(PID.TID 0000.0001) > climsst=.TRUE.,
(PID.TID 0000.0001) > &
(PID.TID 0000.0001) 
(PID.TID 0000.0001)  CHANGING NUMBER OF MODEL TIMESTEPS TO        15
(PID.TID 0000.0001)  CHANGING END TIME TO     1800.00
   Begin Date     19930110    Begin Time        60000
 Current Date     19930110  Current Time        60000
(PID.TID 0000.0001)  DIAGNOSTICS_READPARMS: opening data.diagnostics
(PID.TID 0000.0001)  OPEN_COPY_DATA_FILE: opening file data.diagnostics
(PID.TID 0000.0001) // =======================================================
(PID.TID 0000.0001) // Parameter file "data.diagnostics"
(PID.TID 0000.0001) // =======================================================
(PID.TID 0000.0001) ># Diagnostic Package Choices
(PID.TID 0000.0001) >#--------------------
(PID.TID 0000.0001) >#  dumpAtLast (logical): always write output at the end of simulation (default=F)
(PID.TID 0000.0001) >#  diag_mnc   (logical): write to NetCDF files (default=useMNC)
(PID.TID 0000.0001) >#--for each output-stream:
(PID.TID 0000.0001) >#  fileName(n) : prefix of the output file name (max 80c long) for outp.stream n
(PID.TID 0000.0001) >#  frequency(n):< 0 : write snap-shot output every |frequency| seconds
(PID.TID 0000.0001) >#               > 0 : write time-average output every frequency seconds
(PID.TID 0000.0001) >#  timePhase(n)     : write at time = timePhase + multiple of |frequency|
(PID.TID 0000.0001) >#    averagingFreq  : frequency (in s) for periodic averaging interval
(PID.TID 0000.0001) >#    averagingPhase : phase     (in s) for periodic averaging interval
(PID.TID 0000.0001) >#    repeatCycle    : number of averaging intervals in 1 cycle
(PID.TID 0000.0001) >#  levels(:,n) : list of levels to write to file (Notes: declared as REAL)
(PID.TID 0000.0001) >#                when this entry is missing, select all common levels of this list
(PID.TID 0000.0001) >#  fields(:,n) : list of selected diagnostics fields (8.c) in outp.stream n
(PID.TID 0000.0001) >#                (see "available_diagnostics.log" file for the full list of diags)
(PID.TID 0000.0001) >#  missing_value(n) : missing value for real-type fields in output file "n"
(PID.TID 0000.0001) >#  fileFlags(n)     : specific code (8c string) for output file "n"
(PID.TID 0000.0001) >#--------------------
(PID.TID 0000.0001) > &DIAGNOSTICS_LIST
(PID.TID 0000.0001) >  fields(1:2,1) = 'TCANOPY ','RSURF   ',
(PID.TID 0000.0001) >   levels(1,1) = 1.,
(PID.TID 0000.0001) >   fileName(1) = 'surface',
(PID.TID 0000.0001) >  frequency(1) = 0.003,
(PID.TID 0000.0001) > &
(PID.TID 0000.0001) >
(PID.TID 0000.0001) >#--------------------
(PID.TID 0000.0001) ># Parameter for Diagnostics of per level statistics:
(PID.TID 0000.0001) >#--------------------
(PID.TID 0000.0001) >#  diagSt_mnc (logical): write stat-diags to NetCDF files (default=diag_mnc)
(PID.TID 0000.0001) >#  diagSt_regMaskFile : file containing the region-mask to read-in
(PID.TID 0000.0001) >#  nSetRegMskFile   : number of region-mask sets within the region-mask file
(PID.TID 0000.0001) >#  set_regMask(i)   : region-mask set-index that identifies the region "i"
(PID.TID 0000.0001) >#  val_regMask(i)   : region "i" identifier value in the region mask
(PID.TID 0000.0001) >#--for each output-stream:
(PID.TID 0000.0001) >#  stat_fName(n) : prefix of the output file name (max 80c long) for outp.stream n
(PID.TID 0000.0001) >#  stat_freq(n):< 0 : write snap-shot output every |stat_freq| seconds
(PID.TID 0000.0001) >#               > 0 : write time-average output every stat_freq seconds
(PID.TID 0000.0001) >#  stat_phase(n)    : write at time = stat_phase + multiple of |stat_freq|
(PID.TID 0000.0001) >#  stat_region(:,n) : list of "regions" (default: 1 region only=global)
(PID.TID 0000.0001) >#  stat_fields(:,n) : list of selected diagnostics fields (8.c) in outp.stream n
(PID.TID 0000.0001) >#                (see "available_diagnostics.log" file for the full list of diags)
(PID.TID 0000.0001) >#--------------------
(PID.TID 0000.0001) > &DIAG_STATIS_PARMS
(PID.TID 0000.0001) > stat_fields(1:20,1) = 'UVEL    ','VVEL    ','WVEL    ','THETA   ',
(PID.TID 0000.0001) >                       'UAVE    ','VAVE    ','TAVE    ','TURBU   ',
(PID.TID 0000.0001) >                       'GWDU    ','GWDV    ','RFU     ','RFV     ',
(PID.TID 0000.0001) >                       'DIABU   ','DIABUDYN','DIABV   ','DIABVDYN',
(PID.TID 0000.0001) >                       'TENDUFIZ','TENDVFIZ','CORRDU  ','CORRDV  ',
(PID.TID 0000.0001) ># stat_fName(1) = 'dynStDiag',
(PID.TID 0000.0001) >   stat_freq(1) = 0.0002,
(PID.TID 0000.0001) >  stat_phase(1) = 0.,
(PID.TID 0000.0001) > &
(PID.TID 0000.0001) >#- ignore the following since are out of namelist
(PID.TID 0000.0001) >  frequency(1) = 100.0,
(PID.TID 0000.0001) >   levels(1,1) = 1.,
(PID.TID 0000.0001) >   fields(1,1) = 'TCANOPY ','OLR     ','PREACC  ','CLDFRC  ','OSR     ','RADSWT  ',
(PID.TID 0000.0001) >                 'LWGUP   ','RADLWG  ','LWGCLR  ','OSRCLR  ','OLRCLR  ','RADSWG  ',
(PID.TID 0000.0001) >                 'SWGCLR  ','LWGDOWN ','PBL     ','EFLUX   ','HFLUX   ','TPW     ',
(PID.TID 0000.0001) >                 'TGROUND ','TDEEP   ','SMSHAL  ','SNOW    ','RAINLSP ','RAINCON ',
(PID.TID 0000.0001) >                 'ALBNIRDF','ALBNIRDR','PSUBCLD ','RSURF   ',
(PID.TID 0000.0001) >                 'QCANOPY ','SMROOT  ','SMDEEP  ','CAPACITY','PRECON  ','EVAP    ',
(PID.TID 0000.0001) >                 'GWDUS   ','GWDVS   ','GWDUT   ','GWDVT   ','PS      ',
(PID.TID 0000.0001) >                 'CLDLOW  ','CLDMID  ','CLDHI   ','TAULOW  ','TAUMID  ','TAUHI   ',
(PID.TID 0000.0001) >                 'SLP     ','WINDS   ','CT      ','CU      ','UFLUX   ','VFLUX   ',
(PID.TID 0000.0001) >                 'USTAR   ','Z0      ','U2M     ','V2M     ','T2M     ','Q2M     ',
(PID.TID 0000.0001) >                 'U10M    ','V10M    ','T10M    ','Q10M    ','SNOWFALL','RUNOFF  ',
(PID.TID 0000.0001) >                 'ALBEDO  ','ALBVISDF','ALBVISDR','PLALBEDO',
(PID.TID 0000.0001) >   fileName(1) = 'surface',
(PID.TID 0000.0001) >  frequency(2) = 100.0,
(PID.TID 0000.0001) >  fileFlags(2) = ' P1     ',
(PID.TID 0000.0001) >   levels(1,2) =  100000.0, 97500.0, 95000.0, 92500.0, 90000.0, 85000.0, 80000.0,
(PID.TID 0000.0001) >                   70000.0, 60000.0, 50000.0, 40000.0, 30000.0, 25000.0, 20000.0,
(PID.TID 0000.0001) >                   15000.0, 10000.0, 7000.0,  5000.0,  3000.0,  2000.0,
(PID.TID 0000.0001) >   fields(1,2) = 'TURBT   ','TURBQ   ','MOISTT  ','MOISTQ  ','TURBU   ','TURBV   ',
(PID.TID 0000.0001) >                 'RADLW   ','RADSW   ','GWDU    ','GWDV    ','GWDT    ','CLDLSP  ',
(PID.TID 0000.0001) >                 'CLDRAS  ','CLDTOT  ','CLDNP   ','TAUCLD  ','CLDMAS  ','FIZPRES ',
(PID.TID 0000.0001) >                 'MOISTU  ','MOISTV  ','KM      ','KH      ','RFT     ','TKE     ',
(PID.TID 0000.0001) >                 'RFU     ','RFV     ','DTRAIN  ','QFILL   ','TRBFCC  ','DIABU   ',
(PID.TID 0000.0001) >                 'DIABV   ','DIABT   ','DIABQ   ','TENDUFIZ','TENDVFIZ','TENDTFIZ',
(PID.TID 0000.0001) >                 'TENDQFIZ','CORRDU  ','CORRDV  ','CORRDT  ','CORRDQ  ',
(PID.TID 0000.0001) >   fileName(2) = 'upperfiz',
(PID.TID 0000.0001) >  frequency(3) = 100.0,
(PID.TID 0000.0001) >   fields(1,3) = 'UVEL    ',
(PID.TID 0000.0001) >   fileName(3) = 'uVeltave',
(PID.TID 0000.0001) >  frequency(4) = 100.0,
(PID.TID 0000.0001) >   fields(1,4) = 'VVEL    ',
(PID.TID 0000.0001) >   fileName(4) = 'vVeltave',
(PID.TID 0000.0001) >  frequency(5) = 100.0,
(PID.TID 0000.0001) >   fields(1,5) = 'THETA   ',
(PID.TID 0000.0001) >   fileName(5) = 'Ttave',
(PID.TID 0000.0001) >  frequency(6) = 100.0,
(PID.TID 0000.0001) >   fields(1,6) = 'SALT    ',
(PID.TID 0000.0001) >   fileName(6) = 'Stave',
(PID.TID 0000.0001) >  frequency(7) = 100.0,
(PID.TID 0000.0001) >   fields(1,7) = 'PHIHYD  ',
(PID.TID 0000.0001) >   fileName(7) = 'phitave',
(PID.TID 0000.0001) >  frequency(8) = 100.0,
(PID.TID 0000.0001) >   fields(1,8) = 'DIABTDYN','DIABQDYN','DIABUDYN','DIABVDYN','RCENTER ','RELHUM  ',
(PID.TID 0000.0001) >                 'SALTFILL','TOTUTEND','TOTVTEND','TOTTTEND','TOTSTEND',
(PID.TID 0000.0001) >   fileName(8) = 'tendsdyn',
(PID.TID 0000.0001) >  frequency(9) = 100.0,
(PID.TID 0000.0001) >   fields(1,9) = 'UVELSQ  ','VVELSQ  ','THETASQ ','WVELSQ  ','PHIHYDSQ','SALTSQ  ',
(PID.TID 0000.0001) >                 'UV_VEL_C','WU_VEL  ','WV_VEL  ','UTHMASS ','VTHMASS ','WTHMASS ',
(PID.TID 0000.0001) >                 'USLTMASS','VSLTMASS','WSLTMASS',
(PID.TID 0000.0001) >   fileName(9) = 'secmoms',
(PID.TID 0000.0001) 
(PID.TID 0000.0001) S/R DIAGNOSTICS_READPARMS, read namelist "diagnostics_list": start
(PID.TID 0000.0001) S/R DIAGNOSTICS_READPARMS, read namelist "diagnostics_list": OK
(PID.TID 0000.0001) S/R DIAGNOSTICS_READPARMS, read namelist "DIAG_STATIS_PARMS": start
(PID.TID 0000.0001) S/R DIAGNOSTICS_READPARMS, read namelist "DIAG_STATIS_PARMS": OK
(PID.TID 0000.0001) -----------------------------------------------------
(PID.TID 0000.0001)  DIAGNOSTICS_READPARMS: active diagnostics summary:
(PID.TID 0000.0001) -----------------------------------------------------
(PID.TID 0000.0001) Creating Output Stream: surface
(PID.TID 0000.0001) Output Frequency:          0.003000 ; Phase:           0.000000
(PID.TID 0000.0001)  Averaging Freq.:          0.003000 , Phase:           0.000000 , Cycle:   1
(PID.TID 0000.0001)  missing value:  1.234567000000E+05 ; for integers:   123456789
(PID.TID 0000.0001)  Levels:       1.
(PID.TID 0000.0001)  Fields:    TCANOPY  RSURF
(PID.TID 0000.0001) -----------------------------------------------------
(PID.TID 0000.0001)  DIAGNOSTICS_READPARMS: statistics diags. summary:
(PID.TID 0000.0001) -----------------------------------------------------
(PID.TID 0000.0001) 
(PID.TID 0000.0001) SET_PARMS: done
(PID.TID 0000.0001) Enter INI_VERTICAL_GRID: setInterFDr=    T ; setCenterDr=    F
(PID.TID 0000.0001) tile:   1 ; Read from file dxC1_dXYa.face001.bin
(PID.TID 0000.0001)   => xC yC dxF dyF rA xG yG dxV dyU rAz dxC dyC rAw rAs dxG dyG AngleCS AngleSN
(PID.TID 0000.0001) tile:   2 ; Read from file dxC1_dXYa.face002.bin
(PID.TID 0000.0001)   => xC yC dxF dyF rA xG yG dxV dyU rAz dxC dyC rAw rAs dxG dyG AngleCS AngleSN
(PID.TID 0000.0001) tile:   3 ; Read from file dxC1_dXYa.face003.bin
(PID.TID 0000.0001)   => xC yC dxF dyF rA xG yG dxV dyU rAz dxC dyC rAw rAs dxG dyG AngleCS AngleSN
(PID.TID 0000.0001) tile:   4 ; Read from file dxC1_dXYa.face004.bin
(PID.TID 0000.0001)   => xC yC dxF dyF rA xG yG dxV dyU rAz dxC dyC rAw rAs dxG dyG AngleCS AngleSN
(PID.TID 0000.0001) tile:   5 ; Read from file dxC1_dXYa.face005.bin
(PID.TID 0000.0001)   => xC yC dxF dyF rA xG yG dxV dyU rAz dxC dyC rAw rAs dxG dyG AngleCS AngleSN
(PID.TID 0000.0001) tile:   6 ; Read from file dxC1_dXYa.face006.bin
(PID.TID 0000.0001)   => xC yC dxF dyF rA xG yG dxV dyU rAz dxC dyC rAw rAs dxG dyG AngleCS AngleSN
(PID.TID 0000.0001) %MON XC_max                       =   1.7854351589505E+02
(PID.TID 0000.0001) %MON XC_min                       =  -1.7854351589505E+02
(PID.TID 0000.0001) %MON XC_mean                      =  -4.6999441375798E-15
(PID.TID 0000.0001) %MON XC_sd                        =   1.0355545336287E+02
(PID.TID 0000.0001) %MON XG_max                       =   1.8000000000000E+02
(PID.TID 0000.0001) %MON XG_min                       =  -1.7708797161002E+02
(PID.TID 0000.0001) %MON XG_mean                      =   1.8603515625000E+00
(PID.TID 0000.0001) %MON XG_sd                        =   1.0357130300504E+02
(PID.TID 0000.0001) %MON DXC_max                      =   3.2375185836900E+05
(PID.TID 0000.0001) %MON DXC_min                      =   1.1353730006923E+05
(PID.TID 0000.0001) %MON DXC_mean                     =   2.8606102525036E+05
(PID.TID 0000.0001) %MON DXC_sd                       =   3.4020997630307E+04
(PID.TID 0000.0001) %MON DXF_max                      =   3.2369947500827E+05
(PID.TID 0000.0001) %MON DXF_min                      =   1.2020820513318E+05
(PID.TID 0000.0001) %MON DXF_mean                     =   2.8605437324820E+05
(PID.TID 0000.0001) %MON DXF_sd                       =   3.4050524252539E+04
(PID.TID 0000.0001) %MON DXG_max                      =   3.2375195872773E+05
(PID.TID 0000.0001) %MON DXG_min                      =   1.0098378008791E+05
(PID.TID 0000.0001) %MON DXG_mean                     =   2.8603818508931E+05
(PID.TID 0000.0001) %MON DXG_sd                       =   3.4140406908005E+04
(PID.TID 0000.0001) %MON DXV_max                      =   3.2380418162750E+05
(PID.TID 0000.0001) %MON DXV_min                      =   8.0152299824136E+04
(PID.TID 0000.0001) %MON DXV_mean                     =   2.8603970633619E+05
(PID.TID 0000.0001) %MON DXV_sd                       =   3.4145142117723E+04
(PID.TID 0000.0001) %MON YC_max                       =   8.7940663871962E+01
(PID.TID 0000.0001) %MON YC_min                       =  -8.7940663871962E+01
(PID.TID 0000.0001) %MON YC_mean                      =   0.0000000000000E+00
(PID.TID 0000.0001) %MON YC_sd                        =   3.8676242969072E+01
(PID.TID 0000.0001) %MON YG_max                       =   9.0000000000000E+01
(PID.TID 0000.0001) %MON YG_min                       =  -9.0000000000000E+01
(PID.TID 0000.0001) %MON YG_mean                      =  -1.1842378929335E-15
(PID.TID 0000.0001) %MON YG_sd                        =   3.8676895860710E+01
(PID.TID 0000.0001) %MON DYC_max                      =   3.2375185836900E+05
(PID.TID 0000.0001) %MON DYC_min                      =   1.1353730006923E+05
(PID.TID 0000.0001) %MON DYC_mean                     =   2.8606102525036E+05
(PID.TID 0000.0001) %MON DYC_sd                       =   3.4020997630307E+04
(PID.TID 0000.0001) %MON DYF_max                      =   3.2369947500827E+05
(PID.TID 0000.0001) %MON DYF_min                      =   1.2020820513318E+05
(PID.TID 0000.0001) %MON DYF_mean                     =   2.8605437324820E+05
(PID.TID 0000.0001) %MON DYF_sd                       =   3.4050524252539E+04
(PID.TID 0000.0001) %MON DYG_max                      =   3.2375195872773E+05
(PID.TID 0000.0001) %MON DYG_min                      =   1.0098378008791E+05
(PID.TID 0000.0001) %MON DYG_mean                     =   2.8603818508931E+05
(PID.TID 0000.0001) %MON DYG_sd                       =   3.4140406908005E+04
(PID.TID 0000.0001) %MON DYU_max                      =   3.2380418162750E+05
(PID.TID 0000.0001) %MON DYU_min                      =   8.0152299824136E+04
(PID.TID 0000.0001) %MON DYU_mean                     =   2.8603970633619E+05
(PID.TID 0000.0001) %MON DYU_sd                       =   3.4145142117723E+04
(PID.TID 0000.0001) %MON RA_max                       =   1.0474757731659E+11
(PID.TID 0000.0001) %MON RA_min                       =   1.5497867056722E+10
(PID.TID 0000.0001) %MON RA_mean                      =   8.2985711332657E+10
(PID.TID 0000.0001) %MON RA_sd                        =   1.7448591913787E+10
(PID.TID 0000.0001) %MON RAW_max                      =   1.0481529828871E+11
(PID.TID 0000.0001) %MON RAW_min                      =   1.1465425741966E+10
(PID.TID 0000.0001) %MON RAW_mean                     =   8.2985711332657E+10
(PID.TID 0000.0001) %MON RAW_sd                       =   1.7503889570793E+10
(PID.TID 0000.0001) %MON RAS_max                      =   1.0481529828871E+11
(PID.TID 0000.0001) %MON RAS_min                      =   1.1465425741966E+10
(PID.TID 0000.0001) %MON RAS_mean                     =   8.2985711332657E+10
(PID.TID 0000.0001) %MON RAS_sd                       =   1.7503889570793E+10
(PID.TID 0000.0001) %MON RAZ_max                      =   1.0484349334619E+11
(PID.TID 0000.0001) %MON RAZ_min                      =   8.8317900612505E+09
(PID.TID 0000.0001) %MON RAZ_mean                     =   8.2992246709235E+10
(PID.TID 0000.0001) %MON RAZ_sd                       =   1.7482297311044E+10
(PID.TID 0000.0001) %MON AngleCS_max                  =   9.9999994756719E-01
(PID.TID 0000.0001) %MON AngleCS_min                  =  -9.9968286884824E-01
(PID.TID 0000.0001) %MON AngleCS_mean                 =   3.3078850405987E-01
(PID.TID 0000.0001) %MON AngleCS_sd                   =   6.2496317138039E-01
(PID.TID 0000.0001) %MON AngleSN_max                  =   9.9968286884824E-01
(PID.TID 0000.0001) %MON AngleSN_min                  =  -9.9999994756719E-01
(PID.TID 0000.0001) %MON AngleSN_mean                 =  -3.3078850405987E-01
(PID.TID 0000.0001) %MON AngleSN_sd                   =   6.2496317138039E-01
(PID.TID 0000.0001) 
(PID.TID 0000.0001) SET_REF_STATE: PhiRef/g [m] at level Center (integer)
(PID.TID 0000.0001)                      and at level Interface (half-int.) :
(PID.TID 0000.0001)  K=  0.5  ;  r=       100000.0  ;  phiRef/g=        0.000
(PID.TID 0000.0001)  K=  1.0  ;  r=        98750.0  ;  phiRef/g=      108.349
(PID.TID 0000.0001)  K=  1.5  ;  r=        97500.0  ;  phiRef/g=      218.185
(PID.TID 0000.0001)  K=  2.0  ;  r=        96250.0  ;  phiRef/g=      328.095
(PID.TID 0000.0001)  K=  2.5  ;  r=        95000.0  ;  phiRef/g=      440.064
(PID.TID 0000.0001)  K=  3.0  ;  r=        93750.0  ;  phiRef/g=      552.071
(PID.TID 0000.0001)  K=  3.5  ;  r=        92500.0  ;  phiRef/g=      666.232
(PID.TID 0000.0001)  K=  4.0  ;  r=        91250.0  ;  phiRef/g=      780.470
(PID.TID 0000.0001)  K=  4.5  ;  r=        90000.0  ;  phiRef/g=      896.966
(PID.TID 0000.0001)  K=  5.0  ;  r=        88750.0  ;  phiRef/g=     1013.541
(PID.TID 0000.0001)  K=  5.5  ;  r=        87500.0  ;  phiRef/g=     1132.486
(PID.TID 0000.0001)  K=  6.0  ;  r=        86250.0  ;  phiRef/g=     1251.512
(PID.TID 0000.0001)  K=  6.5  ;  r=        85000.0  ;  phiRef/g=     1373.027
(PID.TID 0000.0001)  K=  7.0  ;  r=        83750.0  ;  phiRef/g=     1494.625
(PID.TID 0000.0001)  K=  7.5  ;  r=        82500.0  ;  phiRef/g=     1618.844
(PID.TID 0000.0001)  K=  8.0  ;  r=        81250.0  ;  phiRef/g=     1743.147
(PID.TID 0000.0001)  K=  8.5  ;  r=        80000.0  ;  phiRef/g=     1870.213
(PID.TID 0000.0001)  K=  9.0  ;  r=        78750.0  ;  phiRef/g=     1997.364
(PID.TID 0000.0001)  K=  9.5  ;  r=        77500.0  ;  phiRef/g=     2127.432
(PID.TID 0000.0001)  K= 10.0  ;  r=        76250.0  ;  phiRef/g=     2257.588
(PID.TID 0000.0001)  K= 10.5  ;  r=        75000.0  ;  phiRef/g=     2390.829
(PID.TID 0000.0001)  K= 11.0  ;  r=        73750.0  ;  phiRef/g=     2524.159
(PID.TID 0000.0001)  K= 11.5  ;  r=        72500.0  ;  phiRef/g=     2660.758
(PID.TID 0000.0001)  K= 12.0  ;  r=        71250.0  ;  phiRef/g=     2797.496
(PID.TID 0000.0001)  K= 12.5  ;  r=        70000.0  ;  phiRef/g=     2937.704
(PID.TID 0000.0001)  K= 13.0  ;  r=        68750.0  ;  phiRef/g=     3078.007
(PID.TID 0000.0001)  K= 13.5  ;  r=        67500.0  ;  phiRef/g=     3222.003
(PID.TID 0000.0001)  K= 14.0  ;  r=        66250.0  ;  phiRef/g=     3366.095
(PID.TID 0000.0001)  K= 14.5  ;  r=        65000.0  ;  phiRef/g=     3514.126
(PID.TID 0000.0001)  K= 15.0  ;  r=        63750.0  ;  phiRef/g=     3662.306
(PID.TID 0000.0001)  K= 15.5  ;  r=        62500.0  ;  phiRef/g=     3814.696
(PID.TID 0000.0001)  K= 16.0  ;  r=        61250.0  ;  phiRef/g=     3967.240
(PID.TID 0000.0001)  K= 16.5  ;  r=        60000.0  ;  phiRef/g=     4124.299
(PID.TID 0000.0001)  K= 17.0  ;  r=        58750.0  ;  phiRef/g=     4281.463
(PID.TID 0000.0001)  K= 17.5  ;  r=        57500.0  ;  phiRef/g=     4443.479
(PID.TID 0000.0001)  K= 18.0  ;  r=        56250.0  ;  phiRef/g=     4605.658
(PID.TID 0000.0001)  K= 18.5  ;  r=        55000.0  ;  phiRef/g=     4773.071
(PID.TID 0000.0001)  K= 19.0  ;  r=        53750.0  ;  phiRef/g=     4940.652
(PID.TID 0000.0001)  K= 19.5  ;  r=        52500.0  ;  phiRef/g=     5113.896
(PID.TID 0000.0001)  K= 20.0  ;  r=        51250.0  ;  phiRef/g=     5287.373
(PID.TID 0000.0001)  K= 20.5  ;  r=        50000.0  ;  phiRef/g=     5467.003
(PID.TID 0000.0001)  K= 21.0  ;  r=        48750.0  ;  phiRef/g=     5646.814
(PID.TID 0000.0001)  K= 21.5  ;  r=        47500.0  ;  phiRef/g=     5833.337
(PID.TID 0000.0001)  K= 22.0  ;  r=        46250.0  ;  phiRef/g=     6020.047
(PID.TID 0000.0001)  K= 22.5  ;  r=        45000.0  ;  phiRef/g=     6214.111
(PID.TID 0000.0001)  K= 23.0  ;  r=        43750.0  ;  phiRef/g=     6408.435
(PID.TID 0000.0001)  K= 23.5  ;  r=        42500.0  ;  phiRef/g=     6610.860
(PID.TID 0000.0001)  K= 24.0  ;  r=        41250.0  ;  phiRef/g=     6813.554
(PID.TID 0000.0001)  K= 24.5  ;  r=        40000.0  ;  phiRef/g=     7025.224
(PID.TID 0000.0001)  K= 25.0  ;  r=        38750.0  ;  phiRef/g=     7237.315
(PID.TID 0000.0001)  K= 25.5  ;  r=        37500.0  ;  phiRef/g=     7459.419
(PID.TID 0000.0001)  K= 26.0  ;  r=        36250.0  ;  phiRef/g=     7682.112
(PID.TID 0000.0001)  K= 26.5  ;  r=        35000.0  ;  phiRef/g=     7916.063
(PID.TID 0000.0001)  K= 27.0  ;  r=        33750.0  ;  phiRef/g=     8150.864
(PID.TID 0000.0001)  K= 27.5  ;  r=        32500.0  ;  phiRef/g=     8398.440
(PID.TID 0000.0001)  K= 28.0  ;  r=        31250.0  ;  phiRef/g=     8647.240
(PID.TID 0000.0001)  K= 28.5  ;  r=        30000.0  ;  phiRef/g=     8910.693
(PID.TID 0000.0001)  K= 29.0  ;  r=        28750.0  ;  phiRef/g=     9175.787
(PID.TID 0000.0001)  K= 29.5  ;  r=        27500.0  ;  phiRef/g=     9457.899
(PID.TID 0000.0001)  K= 30.0  ;  r=        26250.0  ;  phiRef/g=     9742.403
(PID.TID 0000.0001)  K= 30.5  ;  r=        25000.0  ;  phiRef/g=    10046.976
(PID.TID 0000.0001)  K= 31.0  ;  r=        23750.0  ;  phiRef/g=    10354.994
(PID.TID 0000.0001)  K= 31.5  ;  r=        22500.0  ;  phiRef/g=    10687.128
(PID.TID 0000.0001)  K= 32.0  ;  r=        21250.0  ;  phiRef/g=    11024.463
(PID.TID 0000.0001)  K= 32.5  ;  r=        20000.0  ;  phiRef/g=    11391.467
(PID.TID 0000.0001)  K= 33.0  ;  r=        18750.0  ;  phiRef/g=    11766.440
(PID.TID 0000.0001)  K= 33.5  ;  r=        17500.0  ;  phiRef/g=    12179.040
(PID.TID 0000.0001)  K= 34.0  ;  r=        16250.0  ;  phiRef/g=    12606.127
(PID.TID 0000.0001)  K= 34.5  ;  r=        15000.0  ;  phiRef/g=    13083.105
(PID.TID 0000.0001)  K= 35.0  ;  r=        13750.0  ;  phiRef/g=    13583.499
(PID.TID 0000.0001)  K= 35.5  ;  r=        12500.0  ;  phiRef/g=    14153.852
(PID.TID 0000.0001)  K= 36.0  ;  r=        11250.0  ;  phiRef/g=    14757.849
(PID.TID 0000.0001)  K= 36.5  ;  r=        10000.0  ;  phiRef/g=    15467.035
(PID.TID 0000.0001)  K= 37.0  ;  r=         8750.0  ;  phiRef/g=    16229.021
(PID.TID 0000.0001)  K= 37.5  ;  r=         7500.0  ;  phiRef/g=    17167.199
(PID.TID 0000.0001)  K= 38.0  ;  r=         6250.0  ;  phiRef/g=    18199.850
(PID.TID 0000.0001)  K= 38.5  ;  r=         5000.0  ;  phiRef/g=    19589.568
(PID.TID 0000.0001)  K= 39.0  ;  r=         3750.0  ;  phiRef/g=    21197.689
(PID.TID 0000.0001)  K= 39.5  ;  r=         2500.0  ;  phiRef/g=    23954.669
(PID.TID 0000.0001)  K= 40.0  ;  r=         1250.0  ;  phiRef/g=    27728.657
(PID.TID 0000.0001)  K= 40.5  ;  r=            0.0  ;  phiRef/g=    48198.401
(PID.TID 0000.0001)  MDS_READ_FIELD: opening global file: top19232.data
(PID.TID 0000.0001) // =======================================================
(PID.TID 0000.0001) // Field Model R_low (ini_masks_etc) at iteration          1
(PID.TID 0000.0001) // CMIN =          1.000000000000000E+32
(PID.TID 0000.0001) // CMAX =         -1.000000000000000E+32
(PID.TID 0000.0001) // CINT =          0.000000000000000E+00
(PID.TID 0000.0001) // SYMBOLS (CMIN->CMAX): -abcdefghijklmnopqrstuvwxyz+
(PID.TID 0000.0001) //                  0.0: .
(PID.TID 0000.0001) // RANGE I (Lo:Hi:Step):(    -1:   194:     1)
(PID.TID 0000.0001) // RANGE J (Lo:Hi:Step):(    34:    -1:    -1)
(PID.TID 0000.0001) // RANGE K (Lo:Hi:Step):(   1:   1:   1)
(PID.TID 0000.0001) // =======================================================
(PID.TID 0000.0001) // =======================================================
(PID.TID 0000.0001) // END OF FIELD                                          =
(PID.TID 0000.0001) // =======================================================
(PID.TID 0000.0001) 
(PID.TID 0000.0001) // =======================================================
(PID.TID 0000.0001) // Field Model Ro_surf (ini_masks_etc) at iteration          1
(PID.TID 0000.0001) // CMIN =          5.000000000000000E+04
(PID.TID 0000.0001) // CMAX =          1.000000000000000E+05
(PID.TID 0000.0001) // CINT =          1.851851851851852E+03
(PID.TID 0000.0001) // SYMBOLS (CMIN->CMAX): -abcdefghijklmnopqrstuvwxyz+
(PID.TID 0000.0001) //                  0.0: .
(PID.TID 0000.0001) // RANGE I (Lo:Hi:Step):(    -1:   194:     1)
(PID.TID 0000.0001) // RANGE J (Lo:Hi:Step):(    34:    -1:    -1)
(PID.TID 0000.0001) // RANGE K (Lo:Hi:Step):(   1:   1:   1)
(PID.TID 0000.0001) // =======================================================
(PID.TID 0000.0001) K =   1
(PID.TID 0000.0001) //                I=8       I=18      I=28      I=34      I=44      I=54      I=64      I=70      I=80      I=90      I=96      I=106     I=116     I=126     I=132     I=142     I=152     I=162     I=168     I=178     I=188
(PID.TID 0000.0001) // |--J--|101234567|901234567|901234567|901234123|567890123|567890123|567890123|563456789|123456789|123456789|123456785|789012345|789012345|789012345|789078901|345678901|345678901|345678901|901234567|901234567|901234567|901234
(PID.TID 0000.0001) //     34 ++++++++++++++++++yxrzzuz+++xopprpwrrpwrp+++zz+zyxwwvnqppsrtuuxzxt+++++++++++++++++++xyzyyyxxtpnqpqx+++++++++++++++++++++++++++++++++++++++++++++++++++++++++++++++zxxwxxxz+++++++++++++++++++++++++++++++++++++++++++++
(PID.TID 0000.0001) //     33 +++++++++++++++++zuy+xuvx+utrtvxwuupwuupq++zzzzzxxxtuvponrtuttwzxx++++++++++++++++++yyyyzyyxxusnqrqu++++++++++++++++++++++++++++++++++++++++++++++++++++++++++++++++zxxxwvw+++++++++++++++++++++++++++++++++++++++++++++
(PID.TID 0000.0001) //     32 +++++++++++++++zxxxxyxzvvyxtttwxyytpyytppsywyzyxsonnostssrststx++zy+zyzw++++++++++++zxzzzyyxxusopsrx++++++++++++++++++++++++++++++++++++++++++++++++++++++++++++++++zyxwwwvuy+++++++++++++++++++++++++++++++++++++++++++
(PID.TID 0000.0001) //     31 +++++++++++++++zvuz+z+y+xzxvvzxyy+wqy+wqpttutyyriiotvuuqrssssx+z++y+yzyx+++++++++++zyyyyyyxyxwurtvw+++++++++++++++++++++++++++++++++++++++++++++++++++++++++++++++++zzyywwxxxzz+++++++++++++++++++++++++++++++++++++++++
(PID.TID 0000.0001) //     30 +++++++++++++++zxx++++z+zz+++yvwxz+xxz+xoqttttppgemspiiielqrtxz++++zy+z+++++++++++++zxyzzyyyxxvstvz+++++++++++++++++++++++++++++++++++++++++++++++++++++++++++++++z+zyyyywyywvw+++++++++++++++++++++++++++++++++++++++++
(PID.TID 0000.0001) //     29 ++++++++++++++++yxwww++++++++zwvxyz+xyz+toqutrmnsgaaaabeeinsvz+++++++++++++++++++zzzxwxz+zzzyxwsrtz++++++++++++++++++++++++++++++++++++++++++++++++++++++++++++++zyzzyxyxxxyxxyz++++++++++++++++++++++++++++++++++++++++
(PID.TID 0000.0001) //     28 +++++++++++++++xstvyzyz+zzz+zxuvvxy+vxy+yrptuvrtzteaaaaacfquvzzyz++++++++++++++++++yxxxz+++yxxwvstz++++++++++++++++++++++++++++++++++++++++++++++++++++++++++++++zz++zyyyzzyzzzz++++++++++++++++++++++++++++++++++++++++
(PID.TID 0000.0001) //     27 ++++++++++++z+zuwxxyyxxyzzzzyyxvuwxzuwxz+yxvtuuyzzte-abeeguwvzyxz+++++++++++++++++++zxzz+++yxyxwtuz+++++++++++++++++++++++++++++++++++++++++++++++++++++++++++++zxzz+zyyyzzzz++z++++++++++++++++++++++++++++++++++++++++
(PID.TID 0000.0001) //     26 ++++++++++++++yxxyyxwxxxzyxyyy+xuvwyuvwy++zzzyyzyyzytmouolptwxxxz++++++++++++++++++++z+y+++yxyyxstz++++++++++++++++++++++++++++++++++++++++++++++++++++++++++++zxwy+++zyyyxzzz++++++++++++++++++++++++++++++++++++++++++
(PID.TID 0000.0001) //     25 +++++++++++++zyyyyyutuvxxxwxyxyztvwytvwyzzyz++++yxxxy+yvuqqvyyz+y+++++++++++++++++++++yz+zzyyyyutuz++++++++++++++++++++z+++++++++++++++++++++++++++++++++++++++zxwx+++zzynmqxzyzzz++zz++++++++++++++++++++++++++++++++++
(PID.TID 0000.0001) //     24 +++++++++++++zyyyyxwvwwuuxwxyyw+wtwxwtwxzzz+++++yxxxy+zxutuz+++++++++++++++++++++++xz+yz+zzzzyzttt+++++++++++++++++++++++++++++++++++++++++++++++++++++++++++++yzzzz+zzynfffgswxyz++yz++++++++++++++++++++++++++++++++++
(PID.TID 0000.0001) //     23 +++++++++++++zyyyyxxwxxxxxwxxxxx+rvw+rvwxy++++++xxxx+++zxwwzz+++yz+++++++++++++++++tpy+yyzz+zzyytuw+++++++++++++++++++++++++++++++++++++++++++++z+++++++++++y++xwzyzzzyqftxuplnrvywzvywz+++++++++++++yutyz++++++++++++++
(PID.TID 0000.0001) //     22 +++++++++++++zzyyyyyxxyyyvuwxxxszttxzttxz+++++++yxz+++++zyzxz+++z+++++++++++++++++++nsz+zyz+zz+yxwvzz+++++++++++++++++++++++++++++++++++++++++++yzy+++++++++z++xusxzzzxko+++++ywtuvxtuvxw+++++++++++xojilpqtw+++++++++++
(PID.TID 0000.0001) //     21 +++++++++++++zyyyyyyxxyxxwuwwxunwz+zwz+z+++++++++wz++++++zzzy+++zz++++++++++++++++++lknyzyz+++++uxyzz+++++++++++++++++++++++++++++++++++++++++++yxyxz+++++++++++xvswxqlt+++++++++z+x+z+xvxz+++z+++++tliiikllq+++++++++++
(PID.TID 0000.0001) //     20 +++++++++++++yxxyyyyxxxxxxwxxxrnttvwttvw+++++++++y+++++++++++++++zz+++++++++++++++z+qkkntwz+++++zxyz++++++++++++++++++++++++++++++++++++++++++++yzyyxz++++++++++++zuuw+++++++++++++++++++++++++xz+++tlihhkmpqz++++++++++
(PID.TID 0000.0001) //     19 ++++++++++++++yyzzzzzxvwxwvwxxspswxzswxz++++++++++z++++++z+++++z+zy+++++zz+++z++++y++wnnuw+++++++zz+++++++++++++++++++++++++++++++++++++++++++++yzyzyxx++++++++y++++++++++++++++++++++++++++++++xs+yxmjhhkoqv+++++++++++
(PID.TID 0000.0001) //     18 +++++++++++++++++++++xwwxxwvvuwtwyz+wyz+++++++++++++++++yzz+++yy++++++++vx++++z++++++++xx+++++++++z+++++++++++++++++++++++++++++++++++++++++++++yzzyyzyz+++++yxz+++++++++++++++++++++++++++++++++wz+xnkhfgijkp++++++++++
(PID.TID 0000.0001) //     17 +++++++++++++++++++++yxxyxxwttrwz+++z++++++++++++++++++++y+++zwyzz+z++++uxz+++++++++++++++++++++++y+++++++++++++++++++++++++++++++++++++++++++++yyyyzzzz+++++xy++++++++++++++++++++++++++++++++++uqqpmkihgghimx+++++++++
(PID.TID 0000.0001) //     16 +++++++++++++++++++++zxxyxxvrtqv+++++++++++++++++++++++++zz++zz+xz+++y++zxuyz+++x+++++x++++++++++xyy++++++++++++++++++++++++++++++++++++++++z+++xyyyzyz++++++u+++++++++++++++++++++++++++++++++++xrqvnkkjihiimu+++++++++
(PID.TID 0000.0001) //     15 +++z++++++++++++++++++yxxxxvstsw++++++++++++++++++++++++++z+++++yz+++z+++xyxz+++xwvz+++++++++++++yxzy+++++++++++++++++++++++++++++++++++++++zz++yxxxyyyz+++++y+++++++++++++++++++++++++++++++++++yqtxwmlljijknt+++++++++
(PID.TID 0000.0001) //     14 zzzxyz++++++++++++++++zvvvvvttty+++++++++++++++++++++++++++zzz++++++++wvzy+rx++z++zy+++++++++++++zxwz+++++++++++++++++++++++++++++++++++++++++z+xxxxwxyyz+zyrx+++++++++++++++++++++++++++++++++++zpvz+xpnkjjlq++++++++++
(PID.TID 0000.0001) //     13 zyxxyz++++++++++++++++zttuuttsux++++++++++++++++++++++++++++++++zzz++++++xxzxz++++zy++++++z+++++zzyu+wy+++++++++++++++++++++++++++++++++++++++y+wuutttuvwwqqr+++++++++++++++++++++++++++++++++++++zzz++unlljnw++++++++++
(PID.TID 0000.0001) //     12 yxxwz+++++++++++++++++xrttttttvx++++++++++++++++++++++++++++++++++++++++yzuzxzzz++z+++z++++z+++zyvuu+zv+++++++++++++++++++++++++++++++++++++++++usspmnrttspqx++++++++++++++++++++++++++++++++++++++++++wnmlmr+++++++++++
(PID.TID 0000.0001) //     11 ywxx++++++++++++++++++vttuttvvvx+++x+++x++++++++++++++++++++++++++zzzz+++vvuuzzzzzzz++++++zz+zyxvtsx++++++++++++++++++++++++++++++++++++++++++++ronnoopsqqx++++++++++++++++++++++++++++++++++++++++++++voopov+++++++++++
(PID.TID 0000.0001) //     10 wwwx++++++++++++++++++vttuuutwz+++xx++xx++++++++++++++++++++++++++yyzz++xvxzzzzzzzzzzzz+++zzyzzuuwux++++++++++++++++++++++++++++++z+++++++++++++tpqqpqttwz+++++++++++++++++++++++++++++++++++++++++++++xvvyz++++++++++++
(PID.TID 0000.0001) //      9 wwvx++++++++++++++++++ystuutux++++ux++ux+++++++++++++++++++++++zzzyxyyz+zy+++zzzzzzzzyz++zvxyxzzzywz++++++++++++++++++++++++++++++++++++++++++++vsrpptxzzz++++++++++++++++++++++++++++++++++++++++++++++++++++++++++++++
(PID.TID 0000.0001) //      8 xvwz+++++++++++++++++++stuuuxz+++zv++zv+++++++++++++++++++++++zxyyyxxxyzxxu+zzzzzzzzyzzz+zxxxxyyxxvyxz++++++++++++++++++++++++++++++++++++z+++++wrqqptxy++++++++++++++++++++++++++++++++++++++++++++++++++++++++++++++++
(PID.TID 0000.0001) //      7 xu+++++++++++++++++++++uuutsv++++zx++zx+++++++++++++++++++++++yxxxxxxxyzvtt+++zzzzzzz+zzzzxxxxxxwuuvyx++z+++z+++++++++++++++++++z+++++++yxxxwvyz+xuxyy++++++++++++++++++++++++++++++++++++++++++++++++++++++++++++++++++
(PID.TID 0000.0001) //      6 xy+++++++++++++++++++++xvtsrx+++++++++++++++++++++++++++++++++yxxxxxwyzzvtrxyxz++zyxz+zzzzyxxxvtuwyxwyy+y+++y+++++++++++++++++++++z++++zxyzzzzz+++++++++++++++++++++++++++++++++++++++++++++++++++++++++++++++++++++++++
(PID.TID 0000.0001) //      5 z++++++++++++++++++++++zutrt++++++++++++++++++++++++++++++++++yxxyyyyzz+zttovu+++zyyzzzzzzyyxwttvvxyzzx++x+++x+++++++++++++++++++wy+++yyxyzzz+++++++++++++++++++++++++++++++++++++++++++++++++++++++++++++++++++++++++++
(PID.TID 0000.0001) //      4 z++++++++++++++++++++++zyxy+++++++++++++++++++++++++++++++++++yyyzzzzzz+xwvppp+++zyzzyzzzxxtwwuuvvxyxyx+++x+++x+++++++++++++++++yu++zxxyzzzzz+++++++++++++++++++++++++++++++++++++++++++++++++++++++++++++++++++++++++++
(PID.TID 0000.0001) //      3 +++++++++++++++++++++++++++++++++++++++++++++++++++++++++++++++++++++zzzyxxpqv++zzzzxxxywssrptttvvxzxw++++xx++xx++++++++++++++++wy++++zzzz+zyz++++++++++++++++++++++++++++++++++++++++++++++++++++++++++++++++++++++++++
(PID.TID 0000.0001) //      2 ++++++++++++++++++++++++++++++++++++++++++++++++++++++++++++++++++++++zyyywrp+++zz+zyxwwvnqppsrtuuxzxt++++wx++wx++++++++++++++++v+++++zzz++zy++++++++++++++++++++++++++++++++++++++++++++++++++++++++++++++++++z++++++++
(PID.TID 0000.0001) //      1 ++++++++++++++++++++++++++++++++++++++++++++++++++++++++++++++++++++++z++yupq++zzzzzxxxtuvponrtuttwzxx++++zy++zyz+++++++++++++++w++++zyyzzzzzz++++++++++++++++++++++++++++++++++++++++++++++++++++++++++zy+++++yz+++++++
(PID.TID 0000.0001) //      0 ++++++++++++++++++++++++++++++++++++++++++++++++++++++++++++++++++++++++wttppsywyzyxsonnostssrststx++zy+zyyzzyyz++++++++++++++yz+++zzyxxyzzz+++++++++++++++++++++++++++++++++++++++++++++++++++++++++++z+++++++vz++z+zzz
(PID.TID 0000.0001) //     -1 ++++++++++++++++++++++++++++++++++++++++++++++++++++++++++++++++++++++++qpwqpttutyyriiotvuuqrssssx+z++y+yzzyyzzyy++++++++++++++++++zzyxxwyz+++++++++++++++++++++++++++++++++++++++++++++++++++++++++++zz+++++++wzzzyyz+y
(PID.TID 0000.0001) // =======================================================
(PID.TID 0000.0001) // END OF FIELD                                          =
(PID.TID 0000.0001) // =======================================================
(PID.TID 0000.0001) 
(PID.TID 0000.0001) // =======================================================
(PID.TID 0000.0001) // Field hFacC at iteration          1
(PID.TID 0000.0001) // CMIN =          5.000000000000000E-01
(PID.TID 0000.0001) // CMAX =          1.000000000000000E+00
(PID.TID 0000.0001) // CINT =          1.851851851851852E-02
(PID.TID 0000.0001) // SYMBOLS (CMIN->CMAX): -abcdefghijklmnopqrstuvwxyz+
(PID.TID 0000.0001) //                  0.0: .
(PID.TID 0000.0001) // RANGE I (Lo:Hi:Step):(    -1:   194:     1)
(PID.TID 0000.0001) // RANGE J (Lo:Hi:Step):(    34:    -1:    -1)
(PID.TID 0000.0001) // RANGE K (Lo:Hi:Step):(   1:   1:   1)
(PID.TID 0000.0001) // =======================================================
(PID.TID 0000.0001) K =   1
(PID.TID 0000.0001) //                I=8       I=18      I=28      I=34      I=44      I=54      I=64      I=70      I=80      I=90      I=96      I=106     I=116     I=126     I=132     I=142     I=152     I=162     I=168     I=178     I=188
(PID.TID 0000.0001) // |--J--|101234567|901234567|901234567|901234123|567890123|567890123|567890123|563456789|123456789|123456789|123456785|789012345|789012345|789012345|789078901|345678901|345678901|345678901|901234567|901234567|901234567|901234
(PID.TID 0000.0001) //     34 +++++++++++++++++h....b.-++y.............g+r-fi-..................++++++++++++++++++l...............v++++++++++++++++++++++++++++++++++++++++++++++++++++++++++++++.......-++++++++++++++++++++++++z++++++++++++++++++++
(PID.TID 0000.0001) //     33 +++++++++++++++++f..w....z...............++-b-....................+++yy+++++++++++zp................t++++++++++++++++++++++++++++++++++++++++++++++++++++++++++++++j.......w++++++++++++++++++++++++++++++++++++++++++++
(PID.TID 0000.0001) //     32 ++++++++zy+++++-...............................................mu..+c.-.+++++++++++w-...............+++++++++++++++++++++++++++++++++++++++++++++++++++++++++++++++w-........+++++++++++++++++++++++++++++++++++++++++++
(PID.TID 0000.0001) //     31 ++++++++++z++++....+-v.h.f.......k...k........................yfxp.w....++++++++++wb...............q+++++++++++++++++++++++++++++++++++++++++++++++++++++++++++++++x-.........f+++++++++++++++++++++++++++++++++++++++++
(PID.TID 0000.0001) //     30 +++++++++++++++-..zxoq-+--r+n....cp..cp........................n+xv-.z.+++++++++++mz...--.........-++++++++++++++++++++++++++++++++++++++++++++++++++++++++++++++g-q-..........z++++++++++++++++++++++++++++++++++++++++
(PID.TID 0000.0001) //     29 ++++++++++++++++.....p+++y++z.....-s..-s......................hky++qq++++++++++++-.d...-n-.........++++++++++++++++++++++++++++++++++++++z++++++++++++++++++++++y..--..........-+++++++++++++++++++++++++++++++z++++++++
(PID.TID 0000.0001) //     28 ++++++++++++y+z.....-..xc--g-......j...j.....................-..-++v++++++++++++++h....-+xh........+++++++++++++++++++++++++++++++++++++++++++++++++++++++++++++u..ij....-...--.k+++k+++++++++++++++++++++++++++++++++++
(PID.TID 0000.0001) //     27 ++++++++++++fx-.........---.............z.......................-+zx+++++++++++++++m...-z+w.......-++++++++++++++++++++++++++++++++++t+++++++++++++++++++++++xyx...brf....--glido+++o+++++++++w+++++++++++++++++++v+++++
(PID.TID 0000.0001) //     26 +++++++++++++l................g.........kt.a...-.................y+++++++z+++++++++++.n.oyl.......-++++++++++++++++++++++++++++++++++y++++++++++++++++++++++xux-...stl......-fmrsh++sh+++++++++++z++++++++++++++++++++++
(PID.TID 0000.0001) //     25 ++++++++++++t..................e........--..++zl.....p.........q.++++++++y++++++++++++.-t-........a++++++++++++++++++++-u+++++++++++++++++++++++++++++++++++u++....prk-........-b.++b.++++++++++++++++++++++++++++++++++
(PID.TID 0000.0001) //     24 ++++++++++++m..................y..........-y+++m.....za.....jq++zy++++++z+++++++++y.-+..y.cb......s++++++++++++++++++++x++++++++++++++++++++++++w+z+++++++++s+z.a.-ch-...........-++.-++++++++++++++++++++++++++++++++++
(PID.TID 0000.0001) //     23 +++++++++t++x-..................j...j.....v+++++....j++-....az++.c+++++++++++++++++...y...en.-.....++++++++++++++++++++y++++++++++++++++++++++++bwp++++++++y.+v....-g-..................z+z+++++++++v.....x+++++++++++++
(PID.TID 0000.0001) //     22 +++++++++tz+sg..........................-+++++++...z+++y.....+++.p++++++++++++++++++...+-.cu--p......+++++++++++++++++++++++++++++++++++++++++++.-.l+++++++tg++....-b....++++r...........++y++z+++++.........+++++++++++
(PID.TID 0000.0001) //     21 ++++++++++++v.....................o...o.pu++++++q..+++z+n---.+++fen+++++++++++++++++....-.emw++u....am++++++++++++++++++++++++++++++++++++++++++....e+++++zml++u........r+++++++pay.pay....+++-+++++.........+++++++++++
(PID.TID 0000.0001) //     20 +++++++++++++...........................q++++++++.q+++++onssv++rt-.+++++++++++++++.+.......+++++b..-x+++++++++++++++++++++++++++++++++++++++++++......jz+++s+++lj+-...x+++++++z++++++++++++++++..+++.........-++++++++++
(PID.TID 0000.0001) //     19 +++++++++++++v..........................+++++++++x-x+++xyaz++++-ye.++z++.-+++-++++.+z.....z++++++.-++++n++++++++++++++++++++++++++++++++++++++++.......kwyzv+zu.k+++++++++++++z++++++++++++++++z..+..........+++++++++++
(PID.TID 0000.0001) //     18 ++++++++++++++ziwu+zn.............-y..-y+++++++++++++++r.-.yzz..x+w+++++..+++lgu++++++z..+++++++++.+++++++++++++++++++++++++++++++++++++++++++++.......-w++++..-+++++++++++++++++++++++++++++++++..r..........++++++++++
(PID.TID 0000.0001) //     17 ++++++++++++++++++++y............gy+.gy+++++++++++++++++h.lzm...--k-++++..fh+p++++++++++++++++++++.+++++++++++++++++++++++++++++++++yz++++++++++.....--dw++xj..++++z++++++++++++++++++++++++++++n..............+++++++++
(PID.TID 0000.0001) //     16 +++++++++++++++++++++-..........l+++l+++++++++++++++++++z.cyz--t..toi.++....d++n.+++++.++++++++++...++++++++++++++++++++++++++++++++so++++++-x++......-px+++o.m+++ys++++++++++++++++++++++++++++o..............+++++++++
(PID.TID 0000.0001) //     15 xwj.jz+++++++++++++++v..........y+++y++++z+++++++++++++++z.r+ztz.-lht-mn+....pyx....+++++++++++++....++++++++++++++++++++++++++++++++++++++t-.++.......du+++o.+++++++++++++++++++++++++++++++++++..............+++++++++
(PID.TID 0000.0001) //     14 --....++++++++++++++++..........+++++++++++++++++++++++++++d--gvwysxyx..-.w..iwdto-.q+++r+++++z+vd...+s++++++++++++++++++++++++++++++++++++z+k.+.........m-...+++++++++++++++++++++++++++++++++++-..-+........++++++++++
(PID.TID 0000.0001) //     13 .....-++++++++++++++++-.........y+++y+++++++++++++++++++++++++uh-f-y++++v....-xwyla.y++i++ay++xq-b..+..+++++++++++++++++++++++++++++wxz+++++++.z.............s++++++++++++++++++++++++++++++++++++e-a+y.......++++++++++
(PID.TID 0000.0001) //     12 ....-+++++++++++++++++..........ltzultzu++++++++++++++++++++++++++++vg++...b..--ns-lw+-rz+u.xz+-....md.+++++++++++++++++++++++++++zxn+h+++++++++.............+++++++++++++++++++++++++++++++++++++++++y......u++++++++++
(PID.TID 0000.0001) //     11 ....q+++++++++++++++++..........l+x.l+x.++++++++++++++++++++++++++-e-.w+h.....----bejtuuxj.anb......+++p+++++++++++++++++++++z++++++++v+++++++++...........mz+++++++++++++++++++++++++++++++++++++++++z......+++++++++++
(PID.TID 0000.0001) //     10 ....v++++++++++++++++y.........l+r..+r..+++++++++++++++++++++++++i....v+...-..-..----c.pni..........++++w+++w++++++++++++++++++++zg+++++++++++++.........-i+++++++++++++++++z++++++++++++++++++++++++++.....++++++++++++
(PID.TID 0000.0001) //      9 ....++++++++++++++++++........x++r..+r..++s+++++++++++++++++++ue-.....-uf.z+y--.-a---.-qo-.........-z+++j+++j++++++++++++++++++++rw+++++++++++++.........-++++++++++++++++++++++++++++++++++++++++++++++y+++++++++++++++
(PID.TID 0000.0001) //      8 ...-++++++++++++++++++g......-w++..m+..m++w++++++++++++++++++z.............+----.--..-dfk-...........aj+v+++v++++++++++++++++++++k+z++++xm.kxy++........u+++++++++++++++++++++++++++++++++++++++++++++++++++++++++++++++
(PID.TID 0000.0001) //      7 ..w+++++++++++++++++++t......rz++c.++c.++++++++++++++++++++++x.............yyo----...hfd--............vk-+++-++++++++++++++++++z-zxx+++v.......-q.....z+++++++++++++++++++++++++++++++++++++++++++++++++++++++++++++++++
(PID.TID 0000.0001) //      6 ..+++++++++++++++++++++......+++++y+++y++++++++++++++++++++++x.........-......-wwd..-jfed-.............+.+++.++++++++++++++++++yvh-+++i...-...f+++tv++++++++++++++++++++++++++++++++++++++++++++++++++++++++++++++++++++
(PID.TID 0000.0001) //      5 .++++++++++++++++++++++-....l+++++++++++++++++++++++++++++++++........bs......++y-...-be--.............+l.i+l.i++++++++zy++++++yx..++h....--bh++++++++++++++++++++++++++++++++++++++++++++++++++++++++++++++++++++++++++
(PID.TID 0000.0001) //      4 f++++++++++++++++++++++e...u+++++++++++++++++++++++++++++++++x...---..-x......+++-....--...............+++.p++.p++++++++zzz+++++..+x-.....--fk+++++++++++++++++++++++++++++++++++++++++++++++++++++++++z++++++++++++++++
(PID.TID 0000.0001) //      3 ++++++++++++++z+++++++++++++++++++++++++++++++++++++++++++++++rzr+++x--.......+h----..................y+++..++..u+++zz+++++++++y..yursa.-cif..++++++++++++++++++++++++++++++++++++++++++++++++++++++++++zz++++++++++++++
(PID.TID 0000.0001) //      2 +++++++++++++++z+++++++++++++++++++++++++++++++++++++++++++++++++++++y.......g+r-fi-..................++++..++..+++++++++++++++n.++++u..-sx..k+++++++++++++++++++++++++++++++++++++++++++++++++++++++++++z+++++-++++++++
(PID.TID 0000.0001) //      1 +++++++++++++++++++++++++++++++++++++++++++++++++++++++++++++++++++++z-kk....++-b-....................+++y-.+y-..++++++++++++++m.++wv-...b--.-++++++++++++++++++++++++++++++++++++++++++++++++++++++++++..+++++.f+++++zy
(PID.TID 0000.0001) //      0 ++++++++++++++++++++++++++++++++++++++++++++++++++++++++++++++++++++++++...........................mu..+c...c...z++++++++++z++.-x+g........-yzz+++++++++++++++++++++++++++++++++++++++++++++++++++++++x.k+++++y..hk.k--.
(PID.TID 0000.0001) //     -1 ++++++++++++++++++++++++++++++++++++++++++++++++++++++++++++++++++++++++..........................yfxp.w..c...c..q++++++++++++ity+v-.......x++y+++++++++++++++++++++++++++++++++++++++++++++++++++++++--++++++x..bf...k.
(PID.TID 0000.0001) // =======================================================
(PID.TID 0000.0001) // END OF FIELD                                          =
(PID.TID 0000.0001) // =======================================================
(PID.TID 0000.0001) 
(PID.TID 0000.0001) // =======================================================
(PID.TID 0000.0001) // Field hFacW at iteration          1
(PID.TID 0000.0001) // CMIN =          5.000000000000000E-01
(PID.TID 0000.0001) // CMAX =          1.000000000000000E+00
(PID.TID 0000.0001) // CINT =          1.851851851851852E-02
(PID.TID 0000.0001) // SYMBOLS (CMIN->CMAX): -abcdefghijklmnopqrstuvwxyz+
(PID.TID 0000.0001) //                  0.0: .
(PID.TID 0000.0001) // RANGE I (Lo:Hi:Step):(    -1:   194:     1)
(PID.TID 0000.0001) // RANGE J (Lo:Hi:Step):(    34:    -1:    -1)
(PID.TID 0000.0001) // RANGE K (Lo:Hi:Step):(   1:   1:   1)
(PID.TID 0000.0001) // =======================================================
(PID.TID 0000.0001) K =   1
(PID.TID 0000.0001) //                I=8       I=18      I=28      I=34      I=44      I=54      I=64      I=70      I=80      I=90      I=96      I=106     I=116     I=126     I=132     I=142     I=152     I=162     I=168     I=178     I=188
(PID.TID 0000.0001) // |--J--|101234567|901234567|901234567|901234123|567890123|567890123|567890123|563456789|123456789|123456789|123456785|789012345|789012345|789012345|789078901|345678901|345678901|345678901|901234567|901234567|901234567|901234
(PID.TID 0000.0001) //     34 +++++++++++++++++h.......-+y..............gr--f-...................+++..++++++++++++l................v+++++.+++++++++++++++++++++++++++++++++++.+++++++++++++++++++........-+++++++.+++++++++++++++zz++++++++++++++++++.
(PID.TID 0000.0001) //     33 +++++++++++++++++f........................+---.....................++y-y++++++++++zp.................t+++++++++++++++++++++++++++++++++++++++++++++++++++++++++++++j........w+++++++++++++++++++++++++++++++++++++++++++
(PID.TID 0000.0001) //     32 ++++++++zyy++++-................................................m...c...+++++++++++w-................++++++++++++++++++++++++++++++++++++++++++++++++++++++++++++++w-.........++++++++++++++++++++++++++++++++++++++++++
(PID.TID 0000.0001) //     31 ++++++++++zz+++.....--.........................................ffp......++++++++++wb................q++++++++++++++++++++++++++++++++++++++++++++++++++++++++++++++x-..........f++++++++++++++++++++++++++++++++++++++++
(PID.TID 0000.0001) //     30 +++++++++++++++-...xoo-----rn.....c...c.........................nxv-....++++++++++mm....-..........-+++++++++++++++++++++++++++++++++++++++++++++++++++++++++++++g---...........z+++z+++++++++++++++++++++++++++++++++++
(PID.TID 0000.0001) //     29 ++++++++++++++++......p++yy+z......-...-.......................hky+qqq+++++++++++-......--..........+++++++++++++++++++++++++++++++++++++zz+++++++++++++++++++++y...-...........-+++-++++++++++++++++++++++++++zz+++++++
(PID.TID 0000.0001) //     28 ++++++++++++yyz.........c----....................................-+vv+++++++++++++h.....-xh.........++++++++++++++++++++++++++++++++++++++++++++++++++++++++++++u...i.........-..k++.k++++++++++++++++++++++++++++++++++
(PID.TID 0000.0001) //     27 ++++++++++++ff-..........--......................................-zxx++++++++++++++m....-zw........-+++++++++++++++++++++++++++++++++tt++++++++++++++++++++++xxx....bf.....--giddo++do++++++++ww++++++++++++++++++vv++++
(PID.TID 0000.0001) //     26 +++++++++++++l...........................k........................y++++++zz++++++++++....ol........-+++++++++++++++++++++++++++++++++yy+++++++++++++++++++++xuu-....sl.......-fmrhh+rhh++++++++++zz+++++++++++++++++++++
(PID.TID 0000.0001) //     25 ++++++++++++t............................-...+zl..................+++++++yy+++++++++++..--.........a+++++++++++++++++++--u++++++++++++++++++++++++++++++++++uu+.....pk-.........-..+-..+++++++++++++++++++++++++++++++++
(PID.TID 0000.0001) //     24 ++++++++++++m..............................-y++m......a......jq+zyy+++++zz++++++++y..-.....b.......s+++++++++++++++++++xx+++++++++++++++++++++++mwzz++++++++ssz....-c-............-+..-+++++++++++++++++++++++++++++++++
(PID.TID 0000.0001) //     23 +++++++++tt+x-.............................v++++.....j+-.....az+..c++++++++++++++++........e........+++++++++++++++++++yy+++++++++++++++++++++++bbpp+++++++y..v.....--...................zzz++++++++v......x++++++++++++
(PID.TID 0000.0001) //     22 +++++++++ttzsg...........................-++++++....z++y......++..p+++++++++++++++++....-..c---.......++++++++++++++++++++++++++++++++++++++++++....l++++++tgg+.....-.....+++r............+yy+zz++++..........++++++++++
(PID.TID 0000.0001) //     21 ++++++++++++v............................pu+++++q...++zzn---..++feen++++++++++++++++.......emw+u.....am+++++++++++++++++++++++++++++++++++++++++.....e++++zmll+u.........r++++++paa.paa.....++--++++..........++++++++++
(PID.TID 0000.0001) //     20 +++++++++++++............................q+++++++..q++++onnssv+rr-..++++++++++++++..........++++b...-x++++++++++++++++++++++++++++++++++++++++++.......jz++ss++ljj-....x++++++zz+++++++++++++++...++..........-+++++++++
(PID.TID 0000.0001) //     19 +++++++++++++v...........................++++++++x--x++xxaaz+++--e..+zz+..-++--+++..z......z+++++..-+++nn+++n+++++++++++++++++++++++++++++++++++........kwyvvzu..k++++++++++++zz+++++++++++++++z..............++++++++++
(PID.TID 0000.0001) //     18 ++++++++++++++ziiuuzn..............-...-y++++++++++++++r....yz...xww++++...++lggu+++++z...++++++++..++++++++++++++++++++++++++++++++++++++++++++........-w+++...-++++++++++++++++++++++++++++++++..............+++++++++
(PID.TID 0000.0001) //     17 g+++++++++++++++++++y.............gy..gy++++++++++++++++h..lm....----+++...fhpp+++++++++++++++++++..++++++++++++++++++++++++++++++++yyz+++++++++......--dw+xj...+++zz+++++++++++++++++++++++++++n...............++++++++
(PID.TID 0000.0001) //     16 -++++++++++++++++++++-...........l++.l++++++++++++++++++z..cy---...oi..+.....d+n..++++..+++++++++....+++++++++++++++++++++++++++++++soo+++++--x+.......-px++o..m++yss+++++++++++++++++++++++++++o...............++++++++
(PID.TID 0000.0001) //     15 qwj..jz++++++++++++++v...........y++.y+++zz++++++++++++++z..rztt..-hh--mx.....px.....++++++++++++.....+++++++++++++++++++++++++++++++++++++t-..+........du++o..++++++++++++++++++++++++++++++++++...............++++++++
(PID.TID 0000.0001) //     14 --.....+++++++++++++++...........+++.++++++++++++++++++++++d---gvwssxx..-.....iddo-..q++rr++++zzvd....ss+++++++++++++++++++++++++++++++++++zzk............-....++++++++++++++++++++++++++++++++++-...-.........+++++++++
(PID.TID 0000.0001) //     13 ......-+++++++++++++++-..........y++.y++++++++++++++++++++++++uh----y+++q.....-wwla..y+ii+aay+xq--......++++++++++++++++++++++++++++wwxz++++++................s+++++++++++++++++++++++++++++++++++e--ay........+++++++++
(PID.TID 0000.0001) //     12 .....-++++++++++++++++...........ltu.ltuu+++++++++++++++++++++++++++vgg+.......--n--lw--rzu..xz-.....d..++++++++++++++++++++++++++zxnnhh++++++++..............++++++++++++++++++++++++++++++++++++++++y.......u+++++++++
(PID.TID 0000.0001) //     11 .....q++++++++++++++++...........lx..lx..+++++++++++++++++++++++++---..wh......----bejtuuj..ab.......++pp+++p++++++++++++++++zz+++++++vv++++++++............mz++++++++++++++++++++++++++++++++++++++++z.......++++++++++
(PID.TID 0000.0001) //     10 .....v+++++++++++++++y..........lr..lr...++++++++++++++++++++++++i.....v..........----..ni...........+++ww++ww+++++++++++++++++++zgg++++++++++++..........-i++++++++++++++++zz+++++++++++++++++++++++++......+++++++++++
(PID.TID 0000.0001) //      9 .....+++++++++++++++++.........x+r..+r...+ss++++++++++++++++++ue-......--..zy--..----..-o-..........-z++jj++jj+++++++++++++++++++rrw++++++++++++..........-+++++++++++++++++++++++++++++++++++++++++++++yy++++++++++++++
(PID.TID 0000.0001) //      8 ....-+++++++++++++++++g.......-w+...+...m+ww+++++++++++++++++z..............----..-...-df-............ajvv++vv+++++++++++++++++++kkzz+++xm..kxy+.........u++++++++++++++++++++++++++++++++++++++++++++++++++++++++++++++
(PID.TID 0000.0001) //      7 ...w++++++++++++++++++t.......rz+c..+c..+++++++++++++++++++++x..............yo----....fd--.............k--++--+++++++++++++++++z--xxx++v........q......z++++++++++++++++++++++++++++++++++++++++++++++++++++++++++++++++
(PID.TID 0000.0001) //      6 ...++++++++++++++++++++.......++++yy++yy+++++++++++++++++++++x.................-wd...-fed-................++..+++++++++++++++++yvh--++i........f++ttv+++++++++++++++++++++++++++++++++++++++++++++++++++++++++++++++++++
(PID.TID 0000.0001) //      5 ..+++++++++++++++++++++-.....l++++++++++++++++++++++++++++++++.........b.......+y-....-b--..............l..il..i+++++++zyy+++++yx...+h.....--bh+++++++++++++++++++++++++++++++++++++++++++++++++++++++++++++++++++++++++
(PID.TID 0000.0001) //      4 .f+++++++++++++++++++++e....u++++++++++++++++++++++++++++++++x....--...-.......++-.....-................++..++..p+++++++zzzz++++...x-......--fk++++++++++++++++++++++++++++++++++++++++++++++++++++++++zz+++++++++++++++
(PID.TID 0000.0001) //      3 z+++++++++++++zz++++++++++++++++++++++++++++++++++++++++++++++rrrr++x--........h----...................y++..++...u++zzz++++++++y...urra..-cf...+++++++++++++++++++++++++++++++++++++++++++++++++++++++++zzz+++++++++++++
(PID.TID 0000.0001) //      2 +++++++++++++++zz++++++++++++++++++++++++++++++++++++++++++++++++++++y........gr--f-...................+++..++...++++++++++++++n..+++u...-s...k++++++++++++++++++++++++++++++++++++++++++++++++++++++++++zz++++--+++++++
(PID.TID 0000.0001) //      1 +++++++++++++++++++++++++++++++++++++++++++++++++++++++++++++++++++++z--c.....+---.....................++y-.+y-...+++++++++++++m..+wv-....--..-+++++++++++++++++++++++++++++++++++++++++++++++++++++++++...++++..f++++zy
(PID.TID 0000.0001) //      0 ++++++++++++++++++++++++++++++++++++++++++++++++++++++++++++++++++++++-+............................m...c...c....z+++++++++zz+..-xg.........-yzz++++++++++++++++++++++++++++++++++++++++++++++++++++++x..k++++y...h..--.
(PID.TID 0000.0001) //     -1 ++++++++++++++++++++++++++++++++++++++++++++++++++++++++++++++++++++++k............................ffp........c...q+++++++++++iityv-........x+++++++++++++++++++++++++++++++++++++++++++++++++++++++++---+++++x...b....y
(PID.TID 0000.0001) // =======================================================
(PID.TID 0000.0001) // END OF FIELD                                          =
(PID.TID 0000.0001) // =======================================================
(PID.TID 0000.0001) 
(PID.TID 0000.0001) // =======================================================
(PID.TID 0000.0001) // Field hFacS at iteration          1
(PID.TID 0000.0001) // CMIN =          5.000000000000000E-01
(PID.TID 0000.0001) // CMAX =          1.000000000000000E+00
(PID.TID 0000.0001) // CINT =          1.851851851851852E-02
(PID.TID 0000.0001) // SYMBOLS (CMIN->CMAX): -abcdefghijklmnopqrstuvwxyz+
(PID.TID 0000.0001) //                  0.0: .
(PID.TID 0000.0001) // RANGE I (Lo:Hi:Step):(    -1:   194:     1)
(PID.TID 0000.0001) // RANGE J (Lo:Hi:Step):(    34:    -1:    -1)
(PID.TID 0000.0001) // RANGE K (Lo:Hi:Step):(   1:   1:   1)
(PID.TID 0000.0001) // =======================================================
(PID.TID 0000.0001) K =   1
(PID.TID 0000.0001) //                I=8       I=18      I=28      I=34      I=44      I=54      I=64      I=70      I=80      I=90      I=96      I=106     I=116     I=126     I=132     I=142     I=152     I=162     I=168     I=178     I=188
(PID.TID 0000.0001) // |--J--|101234567|901234567|901234567|901234123|567890123|567890123|567890123|563456789|123456789|123456789|123456785|789012345|789012345|789012345|789078901|345678901|345678901|345678901|901234567|901234567|901234567|901234
(PID.TID 0000.0001) //     34 +++++++++++++++++f.......z...............g+---....................+++y..++++++++++zp................t++++++.+++++++++++++++++++++++++++++++++++.+++++++++++++++++++........w+++++++.+++++++++++++++z+++++++++++++++++++.
(PID.TID 0000.0001) //     33 ++++++++zy+++++-...................................................+c.-.++++++++++zp................t++++++++++++++++++++++++++++++++++++++++++++++++++++++++++++++j.........+++++++++++++++++++++++++++++++++++++++++++
(PID.TID 0000.0001) //     32 ++++++++zyz++++................................................fu..w....++++++++++wb................+++++++++++++++++++++++++++++++++++++++++++++++++++++++++++++++w-.........f+++++++++++++++++++++++++++++++++++++++++
(PID.TID 0000.0001) //     31 ++++++++++z++++....x-q.h.-.......c...c.........................fxp.-....++++++++++mb...............q+++++++++++++++++++++++++++++++++++++++++++++++++++++++++++++g-q-..........z++++++++++++++++++++++++++++++++++++++++
(PID.TID 0000.0001) //     30 +++++++++++++++-.....p-+--r+n.....-...-........................kyxv-.z.++++++++++-.d...--..........++++++++++++++++++++++++++++++++++++++z++++++++++++++++++++++y..--..........-+++++++++++++++++++++++++++++++z++++++++
(PID.TID 0000.0001) //     29 ++++++++++++y+z........xc--g-......j...j........................-++qq++++++++++++-.....-n-.........++++++++++++++++++++++++++++++++++++++z++++++++++++++++++++++u..--...........k+++k++++++++++++++++++++++++++z++++++++
(PID.TID 0000.0001) //     28 ++++++++++++fx-.........---.....................................-+zv++++++++++++++h....-zxh........++++++++++++++++++++++++++++++++++t+++++++++++++++++++++++xyx...bj........--.k+++k+++++++++w+++++++++++++++++++v+++++
(PID.TID 0000.0001) //     27 ++++++++++++fl..........................k........................yzx+++++z+++++++++m....oyl.......-++++++++++++++++++++++++++++++++++t++++++++++++++++++++++xux-...brf......-fidoh++oh++++++++w++z++++++++++++++++v+++++
(PID.TID 0000.0001) //     26 ++++++++++++t...........................--.....-.................y+++++++y+++++++++++...o-........-++++++++++++++++++++-u++++++++++++y++++++++++++++++++++++uux....prk.........-b.++b.+++++++++++z++++++++++++++++++++++
(PID.TID 0000.0001) //     25 ++++++++++++m..................e............++zl.....p.........q.y++++++zy++++++++y.-+..t.........a++++++++++++++++++++-u+++++++++++++++++++++++w+z+++++++++s+z....ch-............++..++++++++++++++++++++++++++++++++++
(PID.TID 0000.0001) //     24 +++++++++t++m.............................-y+++m.....za.....aq++.c++++++z+++++++++y.......cb.......++++++++++++++++++++x++++++++++++++++++++++++bwp++++++++y.+v....-g-..................z+z+++++++++v.....x+++++++++++++
(PID.TID 0000.0001) //     23 +++++++++tz+s-............................v+++++....j++-.....z++.c+++++++++++++++++.......cn.-.......++++++++++++++++++y++++++++++++++++++++++++.-.l+++++++t.+v....-b....................+zy++z+++++.........+++++++++++
(PID.TID 0000.0001) //     22 +++++++++tz+s...........................-u++++++...z++zy.....+++.en+++++++++++++++++....-.cm--p......m++++++++++++++++++++++++++++++++++++++++++....e+++++zmg++..........++++r.............y++-+++++.........+++++++++++
(PID.TID 0000.0001) //     21 ++++++++++++v...........................pu++++++q..+++z+n---.++rf-.+++++++++++++++.+.......mw++u....am++++++++++++++++++++++++++++++++++++++++++......jz++zml++l........r+++++z+pay.pay....+++-..+++.........-++++++++++
(PID.TID 0000.0001) //     20 +++++++++++++...........................q++++++++.-x+++xoassv++-t-.++z++.-+++-++++.+.......+++++b..-x++n++++++++++++++++++++++++++++++++++++++++.......kwyzs+zu.j+-...x+++++++z++++++++++++++++...+..........-++++++++++
(PID.TID 0000.0001) //     19 +++++++++++++v..........................+++++++++x-x+++r.-.yzz..xe.++z++..+++-gu++.+z.....z++++++..++++n++++++++++++++++++++++++++++++++++++++++.......-wyzv+...k+++++++++++++z++++++++++++++++z..............++++++++++
(PID.TID 0000.0001) //     18 ++++++++++++++ziwu+zn.............-y..-y+++++++++++++++r...ym...--k-++++..fh+lgu++++++z..+++++++++.+++++++++++++++++++++++++++++++++yz++++++++++.......-w++xj..-+++z++++++++++++++++++++++++++++n..............+++++++++
(PID.TID 0000.0001) //     17 ++++++++++++++++++++y............gy+.gy+++++++++++++++++h.cym.....k-i.++....dp+n.+++++.++++++++++...++++++++++++++++++++++++++++++++so++++++-x++......-dw++xj..+++ys++++++++++++++++++++++++++++n..............+++++++++
(PID.TID 0000.0001) //     16 xwj.jz+++++++++++++++-..........l+++l++++z++++++++++++++z..rz--t..lhi.mn.....pyn....++.++++++++++....+++++++++++++++++++++++++++++++so+++++t-.++.......du+++o.m+++ys++++++++++++++++++++++++++++o..............+++++++++
(PID.TID 0000.0001) //     15 --....+++++++++++++++v..........y+++y++++z+++++++++++++++z.d--gv.-lht-..-....iwd....q+++r+++++z+v....+s++++++++++++++++++++++++++++++++++++t-..+.........m-...+++++++++++++++++++++++++++++++++++..............+++++++++
(PID.TID 0000.0001) //     14 ......++++++++++++++++..........y+++y++++++++++++++++++++++d--gh-f-xyx..-....-wdtl-.q++ir+ay++xq-b.....+++++++++++++++++++++++++++++wxz++++z+k.z..............+++++++++++++++++++++++++++++++++++-..-+........++++++++++
(PID.TID 0000.0001) //     13 .....-++++++++++++++++..........ltzultzu++++++++++++++++++++++uh-f-yvg++......--nl-.w+-iz+a.xzx-....m..+++++++++++++++++++++++++++zxnxh+++++++.z.............s++++++++++++++++++++++++++++++++++++e-a+y.......++++++++++
(PID.TID 0000.0001) //     12 ....-+++++++++++++++++..........ltx.ltx.++++++++++++++++++++++++++-e-.w+......-----ejt-rxj..nb......md.p+++++++++++++++++++++z++++zxn+h+++++++++.............+++++++++++++++++++++++++++++++++++++++++y......u++++++++++
(PID.TID 0000.0001) //     11 ....q++++++++++++++++y..........lr..lr..+++++++++++++++++++++++++i....v+......-..----c.pni..........+++pw+++w++++++++++++++++z+++zg+++v+++++++++...........mz+++++++++++++++z+++++++++++++++++++++++++z......+++++++++++
(PID.TID 0000.0001) //     10 ....v++++++++++++++++y.........l+r..+r..++s+++++++++++++++++++ue-.....-u...-..-..----..pn-..........z+++j+++j++++++++++++++++++++rg+++++++++++++.........-i+++++++++++++++++z++++++++++++++++++++++++++.....++++++++++++
(PID.TID 0000.0001) //      9 ....++++++++++++++++++........w++...+...++s++++++++++++++++++z.............+---..--...-fk-...........aj+j+++j++++++++++++++++++++kwz++++xm.kxy++.........-++++++++++++++++++++++++++++++++++++++++++++++y+++++++++++++++
(PID.TID 0000.0001) //      8 ...-++++++++++++++++++g......-w++..m+..m++w++++++++++++++++++x.............y----.-...-dd--............jk-+++-++++++++++++++++++z-kxx+++v.......-........u+++++++++++++++++++++++++++++++++++++++++++++++++++++++++++++++
(PID.TID 0000.0001) //      7 ..w+++++++++++++++++++t......rz++c.++c.++++++++++++++++++++++x................----...hfd--.............k.+++.++++++++++++++++++y-h-x++i........-q.....z+++++++++++++++++++++++++++++++++++++++++++++++++++++++++++++++++
(PID.TID 0000.0001) //      6 ..+++++++++++++++++++++......+++++y+++y++++++++++++++++++++++x.........-......-ww-...-be--.............+..i+..i++++++++zy++++++yv..++h....-...f+++tv++++++++++++++++++++++++++++++++++++++++++++++++++++++++++++++++++++
(PID.TID 0000.0001) //      5 .++++++++++++++++++++++-....l++++++++++++++++++++++++++++++++x........-s......++y-....--...............+l..pl..p+++++++zyzz++++y...x-.....--bh+++++++++++++++++++++++++++++++++++++++++++++++++++++++++z++++++++++++++++
(PID.TID 0000.0001) //      4 f+++++++++++++z++++++++e...u+++++++++++++++++++++++++++++++++x...---..-.......+h--.....................+++..++..u+++zz++zzz++++y..yu-.....--..+++++++++++++++++++++++++++++++++++++++++++++++++++++++++zzz++++++++++++++
(PID.TID 0000.0001) //      3 ++++++++++++++zz++++++++++++++++++++++++++++++++++++++++++++++rzr+++x-........+h----..................y+++..++..u+++zz+++++++++n..yurs..-ci...++++++++++++++++++++++++++++++++++++++++++++++++++++++++++zz+++++-++++++++
(PID.TID 0000.0001) //      2 +++++++++++++++z+++++++++++++++++++++++++++++++++++++++++++++++++++++y.......g+---....................+++y..+y...++++++++++++++m.++wv-...b-..-++++++++++++++++++++++++++++++++++++++++++++++++++++++++++..+++++.f+++++zy
(PID.TID 0000.0001) //      1 +++++++++++++++++++++++++++++++++++++++++++++++++++++++++++++++++++++z-k...............................+c...c....++++++++++z++.-.+g........-.-z+++++++++++++++++++++++++++++++++++++++++++++++++++++++x...++++y..hk.k--.
(PID.TID 0000.0001) //      0 ++++++++++++++++++++++++++++++++++++++++++++++++++++++++++++++++++++++-............................fu..w.....y...q+++++++++z++.-x+g........-yz++++++++++++++++++++++++++++++++++++++++++++++++++++++++-.k+++++x..bf...y+
(PID.TID 0000.0001) //     -1 ++++++++++++++++++++++++++++++++++++++++++++++++++++++++++++++++++++++...c.........................fxp.-......c..qvx+++++++++-ihxyv-.......x++++++++++++++++++++++++++++++++++++++++++++++++++++++++++--z+++++k..--...-x
(PID.TID 0000.0001) // =======================================================
(PID.TID 0000.0001) // END OF FIELD                                          =
(PID.TID 0000.0001) // =======================================================
(PID.TID 0000.0001) 
(PID.TID 0000.0001) GAD_INIT_FIXED: GAD_OlMinSize=  1  0  1
(PID.TID 0000.0001) 
(PID.TID 0000.0001) // ===================================
(PID.TID 0000.0001) // GAD parameters :
(PID.TID 0000.0001) // ===================================
(PID.TID 0000.0001) tempAdvScheme =   /* Temp. Horiz.Advection scheme selector */
(PID.TID 0000.0001)                       2
(PID.TID 0000.0001)     ;
(PID.TID 0000.0001) tempVertAdvScheme =   /* Temp. Vert. Advection scheme selector */
(PID.TID 0000.0001)                       2
(PID.TID 0000.0001)     ;
(PID.TID 0000.0001) tempMultiDimAdvec =   /* use Muti-Dim Advec method for Temp */
(PID.TID 0000.0001)                   F
(PID.TID 0000.0001)     ;
(PID.TID 0000.0001) tempSOM_Advection = /* use 2nd Order Moment Advection for Temp */
(PID.TID 0000.0001)                   F
(PID.TID 0000.0001)     ;
(PID.TID 0000.0001) AdamsBashforthGt = /* apply Adams-Bashforth extrapolation on Gt */
(PID.TID 0000.0001)                   T
(PID.TID 0000.0001)     ;
(PID.TID 0000.0001) AdamsBashforth_T = /* apply Adams-Bashforth extrapolation on Temp */
(PID.TID 0000.0001)                   F
(PID.TID 0000.0001)     ;
(PID.TID 0000.0001) saltAdvScheme =   /* Salt. Horiz.advection scheme selector */
(PID.TID 0000.0001)                       2
(PID.TID 0000.0001)     ;
(PID.TID 0000.0001) saltVertAdvScheme =   /* Salt. Vert. Advection scheme selector */
(PID.TID 0000.0001)                       2
(PID.TID 0000.0001)     ;
(PID.TID 0000.0001) saltMultiDimAdvec =   /* use Muti-Dim Advec method for Salt */
(PID.TID 0000.0001)                   F
(PID.TID 0000.0001)     ;
(PID.TID 0000.0001) saltSOM_Advection = /* use 2nd Order Moment Advection for Salt */
(PID.TID 0000.0001)                   F
(PID.TID 0000.0001)     ;
(PID.TID 0000.0001) AdamsBashforthGs = /* apply Adams-Bashforth extrapolation on Gs */
(PID.TID 0000.0001)                   T
(PID.TID 0000.0001)     ;
(PID.TID 0000.0001) AdamsBashforth_S = /* apply Adams-Bashforth extrapolation on Salt */
(PID.TID 0000.0001)                   F
(PID.TID 0000.0001)     ;
(PID.TID 0000.0001) // ===================================
 Setting Alarm for: 19930110  060000,  with frequency:       3000, and Tag: radsw                                                                           
 Setting Alarm for: 19930110  060000,  with frequency:       3000, and Tag: radlw                                                                           
 Setting Alarm for: 19930110  060000,  with frequency:        400, and Tag: turb                                                                            
 Setting Alarm for: 19930110  060000,  with frequency:       1000, and Tag: moist                                                                           
 Setting Alarm for: 19930110  060000,  with frequency:          0, and Tag: pnt                                                                             
 No of Total Tiles for bi=           1 :         2562
 No of Land  Tiles for bi=           1 :         1977
 No of Total Tiles for bi=           2 :         2569
 No of Land  Tiles for bi=           2 :         1981
 No of Total Tiles for bi=           3 :         2553
 No of Land  Tiles for bi=           3 :         2122
 No of Total Tiles for bi=           4 :         1380
 No of Land  Tiles for bi=           4 :          488
 No of Total Tiles for bi=           5 :         2148
 No of Land  Tiles for bi=           5 :         1457
 No of Total Tiles for bi=           6 :         1107
 No of Land  Tiles for bi=           6 :          246
(PID.TID 0000.0001)  MDS_READ_FIELD: opening global file: topvar19232.data
(PID.TID 0000.0001) ------------------------------------------------------------
(PID.TID 0000.0001) DIAGNOSTICS_SET_LEVELS: done
(PID.TID 0000.0001)  Total Nb of available Diagnostics: ndiagt=   389
(PID.TID 0000.0001)  write list of available Diagnostics to file: available_diagnostics.log
(PID.TID 0000.0001) SETDIAG: Allocate  1 x  1 Levels for Diagnostic #   294 TCANOPY
(PID.TID 0000.0001) SETDIAG: Allocate  1 x  1 Levels for Diagnostic #    88 RSURF
(PID.TID 0000.0001)   space allocated for all diagnostics:       2 levels
(PID.TID 0000.0001) DIAGNOSTICS_SET_POINTERS: done
(PID.TID 0000.0001) ------------------------------------------------------------
(PID.TID 0000.0001) DIAGSTATS_SET_REGIONS: define no region
(PID.TID 0000.0001) ------------------------------------------------------------
(PID.TID 0000.0001)   space allocated for all stats-diags:       0 levels
(PID.TID 0000.0001) DIAGSTATS_SET_POINTERS: done
(PID.TID 0000.0001) ------------------------------------------------------------
 Setting Alarm for: 19930110  060000,  with frequency:       3000, and Tag: diagtag01                                                                       
(PID.TID 0000.0001) %MON fCori_max                    =   1.4535016908525E-04
(PID.TID 0000.0001) %MON fCori_min                    =  -1.4535016908525E-04
(PID.TID 0000.0001) %MON fCori_mean                   =   0.0000000000000E+00
(PID.TID 0000.0001) %MON fCori_sd                     =   8.3972192788621E-05
(PID.TID 0000.0001) %MON fCoriG_max                   =   1.4544410433286E-04
(PID.TID 0000.0001) %MON fCoriG_min                   =  -1.4544410433286E-04
(PID.TID 0000.0001) %MON fCoriG_mean                  =   0.0000000000000E+00
(PID.TID 0000.0001) %MON fCoriG_sd                    =   8.3972192788621E-05
(PID.TID 0000.0001) %MON fCoriCos_max                 =   1.4540341538469E-04
(PID.TID 0000.0001) %MON fCoriCos_min                 =   5.2264550201501E-06
(PID.TID 0000.0001) %MON fCoriCos_mean                =   1.1482595466044E-04
(PID.TID 0000.0001) %MON fCoriCos_sd                  =   3.0292878037194E-05
(PID.TID 0000.0001) INI_CG2D: CG2D normalisation factor =  9.9119603843467410E-06
(PID.TID 0000.0001) INI_CG2D: cg2dTolerance = 4.211461545964199E-10 (Area=5.0986421043E+14)
(PID.TID 0000.0001) 
(PID.TID 0000.0001) // =======================================================
(PID.TID 0000.0001) // Model configuration
(PID.TID 0000.0001) // =======================================================
(PID.TID 0000.0001) //
(PID.TID 0000.0001) // "Physical" paramters ( PARM01 in namelist )
(PID.TID 0000.0001) //
(PID.TID 0000.0001) buoyancyRelation = /* Type of relation to get Buoyancy */
(PID.TID 0000.0001)               'ATMOSPHERIC'
(PID.TID 0000.0001)     ;
(PID.TID 0000.0001) fluidIsAir   =  /* fluid major constituent is Air */
(PID.TID 0000.0001)                   T
(PID.TID 0000.0001)     ;
(PID.TID 0000.0001) fluidIsWater =  /* fluid major constituent is Water */
(PID.TID 0000.0001)                   F
(PID.TID 0000.0001)     ;
(PID.TID 0000.0001) usingPCoords =  /* use p (or p*) vertical coordinate */
(PID.TID 0000.0001)                   T
(PID.TID 0000.0001)     ;
(PID.TID 0000.0001) usingZCoords =  /* use z (or z*) vertical coordinate */
(PID.TID 0000.0001)                   F
(PID.TID 0000.0001)     ;
(PID.TID 0000.0001) tRef =   /* Reference temperature profile ( oC or K ) */
(PID.TID 0000.0001)                 2.951000000000000E+02,      /* K =  1 */
(PID.TID 0000.0001)                 2.953000000000000E+02,      /* K =  2 */
(PID.TID 0000.0001)                 2.954000000000000E+02,      /* K =  3 */
(PID.TID 0000.0001)                 2.956000000000000E+02,      /* K =  4 */
(PID.TID 0000.0001)                 2.958000000000000E+02,      /* K =  5 */
(PID.TID 0000.0001)                 2.960000000000000E+02,      /* K =  6 */
(PID.TID 0000.0001)                 2.962000000000000E+02,      /* K =  7 */
(PID.TID 0000.0001)                 2.964000000000000E+02,      /* K =  8 */
(PID.TID 0000.0001)                 2.966000000000000E+02,      /* K =  9 */
(PID.TID 0000.0001)                 2.968000000000000E+02,      /* K = 10 */
(PID.TID 0000.0001)                 2.970000000000000E+02,      /* K = 11 */
(PID.TID 0000.0001)                 2.973000000000000E+02,      /* K = 12 */
(PID.TID 0000.0001)                 2.975000000000000E+02,      /* K = 13 */
(PID.TID 0000.0001)                 2.977000000000000E+02,      /* K = 14 */
(PID.TID 0000.0001)                 2.980000000000000E+02,      /* K = 15 */
(PID.TID 0000.0001)                 2.983000000000000E+02,      /* K = 16 */
(PID.TID 0000.0001)                 2.985000000000000E+02,      /* K = 17 */
(PID.TID 0000.0001)                 2.988000000000000E+02,      /* K = 18 */
(PID.TID 0000.0001)                 2.991000000000000E+02,      /* K = 19 */
(PID.TID 0000.0001)                 2.995000000000000E+02,      /* K = 20 */
(PID.TID 0000.0001)                 2.998000000000000E+02,      /* K = 21 */
(PID.TID 0000.0001)                 3.001000000000000E+02,      /* K = 22 */
(PID.TID 0000.0001)                 3.005000000000000E+02,      /* K = 23 */
(PID.TID 0000.0001)                 3.009000000000000E+02,      /* K = 24 */
(PID.TID 0000.0001)                 3.015000000000000E+02,      /* K = 25 */
(PID.TID 0000.0001)                 3.023000000000000E+02,      /* K = 26 */
(PID.TID 0000.0001)                 3.034000000000000E+02,      /* K = 27 */
(PID.TID 0000.0001)                 3.049000000000000E+02,      /* K = 28 */
(PID.TID 0000.0001)                 3.068000000000000E+02,      /* K = 29 */
(PID.TID 0000.0001)                 3.094000000000000E+02,      /* K = 30 */
(PID.TID 0000.0001)                 3.129000000000000E+02,      /* K = 31 */
(PID.TID 0000.0001)                 3.178000000000000E+02,      /* K = 32 */
(PID.TID 0000.0001)                 3.247000000000000E+02,      /* K = 33 */
(PID.TID 0000.0001)                 3.361000000000000E+02,      /* K = 34 */
(PID.TID 0000.0001)                 3.526000000000000E+02,      /* K = 35 */
(PID.TID 0000.0001)                 3.734000000000000E+02,      /* K = 36 */
(PID.TID 0000.0001)                 4.012000000000000E+02,      /* K = 37 */
(PID.TID 0000.0001)                 4.416000000000000E+02,      /* K = 38 */
(PID.TID 0000.0001)                 5.110000000000000E+02,      /* K = 39 */
(PID.TID 0000.0001)                 6.995000000000000E+02       /* K = 40 */
(PID.TID 0000.0001)     ;
(PID.TID 0000.0001) sRef =   /* Reference salinity profile ( psu ) */
(PID.TID 0000.0001)    40 @  0.000000000000000E+00              /* K =  1: 40 */
(PID.TID 0000.0001)     ;
(PID.TID 0000.0001) viscAh  =   /* Lateral eddy viscosity ( m^2/s ) */
(PID.TID 0000.0001)                 0.000000000000000E+00
(PID.TID 0000.0001)     ;
(PID.TID 0000.0001) viscAhMax = /* Maximum lateral eddy viscosity ( m^2/s ) */
(PID.TID 0000.0001)                 1.000000000000000E+21
(PID.TID 0000.0001)     ;
(PID.TID 0000.0001) viscAhGrid = /* Grid dependent lateral eddy viscosity ( non-dim. ) */
(PID.TID 0000.0001)                 0.000000000000000E+00
(PID.TID 0000.0001)     ;
(PID.TID 0000.0001) useFullLeith = /* Use Full Form of Leith Viscosity on/off flag*/
(PID.TID 0000.0001)                   F
(PID.TID 0000.0001)     ;
(PID.TID 0000.0001) useStrainTensionVisc= /* Use StrainTension Form of Viscous Operator flag*/
(PID.TID 0000.0001)                   F
(PID.TID 0000.0001)     ;
(PID.TID 0000.0001) useAreaViscLength = /* Use area for visc length instead of geom. mean*/
(PID.TID 0000.0001)                   F
(PID.TID 0000.0001)     ;
(PID.TID 0000.0001) viscC2leith = /* Leith harmonic visc. factor (on grad(vort),non-dim.) */
(PID.TID 0000.0001)                 0.000000000000000E+00
(PID.TID 0000.0001)     ;
(PID.TID 0000.0001) viscC2leithD = /* Leith harmonic viscosity factor (on grad(div),non-dim.)*/
(PID.TID 0000.0001)                 0.000000000000000E+00
(PID.TID 0000.0001)     ;
(PID.TID 0000.0001) viscC2smag = /* Smagorinsky harmonic viscosity factor (non-dim.) */
(PID.TID 0000.0001)                 0.000000000000000E+00
(PID.TID 0000.0001)     ;
(PID.TID 0000.0001) viscA4  =   /* Lateral biharmonic viscosity ( m^4/s ) */
(PID.TID 0000.0001)                 0.000000000000000E+00
(PID.TID 0000.0001)     ;
(PID.TID 0000.0001) viscA4Max = /* Maximum biharmonic viscosity ( m^2/s ) */
(PID.TID 0000.0001)                 1.000000000000000E+21
(PID.TID 0000.0001)     ;
(PID.TID 0000.0001) viscA4Grid = /* Grid dependent biharmonic viscosity ( non-dim. ) */
(PID.TID 0000.0001)                 0.000000000000000E+00
(PID.TID 0000.0001)     ;
(PID.TID 0000.0001) viscC4leith = /* Leith biharm viscosity factor (on grad(vort), non-dim.)*/
(PID.TID 0000.0001)                 0.000000000000000E+00
(PID.TID 0000.0001)     ;
(PID.TID 0000.0001) viscC4leithD = /* Leith biharm viscosity factor (on grad(div), non-dim.) */
(PID.TID 0000.0001)                 0.000000000000000E+00
(PID.TID 0000.0001)     ;
(PID.TID 0000.0001) viscC4Smag = /* Smagorinsky biharm viscosity factor (non-dim) */
(PID.TID 0000.0001)                 0.000000000000000E+00
(PID.TID 0000.0001)     ;
(PID.TID 0000.0001) no_slip_sides =  /* Viscous BCs: No-slip sides */
(PID.TID 0000.0001)                   F
(PID.TID 0000.0001)     ;
(PID.TID 0000.0001) sideDragFactor = /* side-drag scaling factor (non-dim) */
(PID.TID 0000.0001)                 2.000000000000000E+00
(PID.TID 0000.0001)     ;
(PID.TID 0000.0001) viscArNr = /* vertical profile of vertical viscosity (Pa^2/s )*/
(PID.TID 0000.0001)    40 @  0.000000000000000E+00              /* K =  1: 40 */
(PID.TID 0000.0001)     ;
(PID.TID 0000.0001) no_slip_bottom =  /* Viscous BCs: No-slip bottom */
(PID.TID 0000.0001)                   F
(PID.TID 0000.0001)     ;
(PID.TID 0000.0001) bottomDragLinear = /* linear bottom-drag coefficient ( m/s ) */
(PID.TID 0000.0001)                 0.000000000000000E+00
(PID.TID 0000.0001)     ;
(PID.TID 0000.0001) bottomDragQuadratic = /* quadratic bottom-drag coefficient (-) */
(PID.TID 0000.0001)                 0.000000000000000E+00
(PID.TID 0000.0001)     ;
(PID.TID 0000.0001) diffKhT =   /* Laplacian diffusion of heat laterally ( m^2/s ) */
(PID.TID 0000.0001)                 0.000000000000000E+00
(PID.TID 0000.0001)     ;
(PID.TID 0000.0001) diffK4T =   /* Biharmonic diffusion of heat laterally ( m^4/s ) */
(PID.TID 0000.0001)                 0.000000000000000E+00
(PID.TID 0000.0001)     ;
(PID.TID 0000.0001) diffKhS =   /* Laplacian diffusion of salt laterally ( m^2/s ) */
(PID.TID 0000.0001)                 0.000000000000000E+00
(PID.TID 0000.0001)     ;
(PID.TID 0000.0001) diffK4S =   /* Biharmonic diffusion of salt laterally ( m^4/s ) */
(PID.TID 0000.0001)                 0.000000000000000E+00
(PID.TID 0000.0001)     ;
(PID.TID 0000.0001) diffKrNrT = /* vertical profile of vertical diffusion of Temp (Pa^2/s )*/
(PID.TID 0000.0001)    40 @  0.000000000000000E+00              /* K =  1: 40 */
(PID.TID 0000.0001)     ;
(PID.TID 0000.0001) diffKrNrS = /* vertical profile of vertical diffusion of Salt (Pa^2/s )*/
(PID.TID 0000.0001)    40 @  0.000000000000000E+00              /* K =  1: 40 */
(PID.TID 0000.0001)     ;
(PID.TID 0000.0001) diffKrBL79surf = /* Surface diffusion for Bryan and Lewis 79 ( m^2/s ) */
(PID.TID 0000.0001)                 0.000000000000000E+00
(PID.TID 0000.0001)     ;
(PID.TID 0000.0001) diffKrBL79deep = /* Deep diffusion for Bryan and Lewis 1979 ( m^2/s ) */
(PID.TID 0000.0001)                 0.000000000000000E+00
(PID.TID 0000.0001)     ;
(PID.TID 0000.0001) diffKrBL79scl = /* Depth scale for Bryan and Lewis 1979 ( m ) */
(PID.TID 0000.0001)                 2.000000000000000E+02
(PID.TID 0000.0001)     ;
(PID.TID 0000.0001) diffKrBL79Ho = /* Turning depth for Bryan and Lewis 1979 ( m ) */
(PID.TID 0000.0001)                -2.000000000000000E+03
(PID.TID 0000.0001)     ;
(PID.TID 0000.0001) ivdc_kappa = /* Implicit Vertical Diffusivity for Convection (Pa^2/s) */
(PID.TID 0000.0001)                 0.000000000000000E+00
(PID.TID 0000.0001)     ;
(PID.TID 0000.0001) hMixCriteria=  /* Criteria for mixed-layer diagnostic */
(PID.TID 0000.0001)                -8.000000000000000E-01
(PID.TID 0000.0001)     ;
(PID.TID 0000.0001) dRhoSmall =  /* Parameter for mixed-layer diagnostic */
(PID.TID 0000.0001)                 1.000000000000000E-06
(PID.TID 0000.0001)     ;
(PID.TID 0000.0001) hMixSmooth=  /* Smoothing parameter for mixed-layer diagnostic */
(PID.TID 0000.0001)                 0.000000000000000E+00
(PID.TID 0000.0001)     ;
(PID.TID 0000.0001) eosType =  /* Type of Equation of State */
(PID.TID 0000.0001)               'IDEALG'
(PID.TID 0000.0001)     ;
(PID.TID 0000.0001) tAlpha =   /* Linear EOS thermal expansion coefficient ( 1/oC ) */
(PID.TID 0000.0001)                 1.234567000000000E+05
(PID.TID 0000.0001)     ;
(PID.TID 0000.0001) sBeta =   /* Linear EOS haline contraction coefficient ( 1/psu ) */
(PID.TID 0000.0001)                 1.234567000000000E+05
(PID.TID 0000.0001)     ;
(PID.TID 0000.0001) atm_Rd =  /* gas constant for dry air ( J/kg/K ) */
(PID.TID 0000.0001)                 2.868571428571428E+02
(PID.TID 0000.0001)     ;
(PID.TID 0000.0001) atm_Cp =  /* specific heat (Cp) of dry air ( J/kg/K ) */
(PID.TID 0000.0001)                 1.004000000000000E+03
(PID.TID 0000.0001)     ;
(PID.TID 0000.0001) atm_kappa =  /* kappa (=Rd/Cp ) of dry air */
(PID.TID 0000.0001)                 2.857142857142857E-01
(PID.TID 0000.0001)     ;
(PID.TID 0000.0001) atm_Rq = /* water vap. specific vol. anomaly relative to dry air */
(PID.TID 0000.0001)                 6.078000000000000E-01
(PID.TID 0000.0001)     ;
(PID.TID 0000.0001) atm_Po =  /* standard reference pressure ( Pa ) */
(PID.TID 0000.0001)                 1.000000000000000E+05
(PID.TID 0000.0001)     ;
(PID.TID 0000.0001) integr_GeoPot =  /* select how the geopotential is integrated */
(PID.TID 0000.0001)                       2
(PID.TID 0000.0001)     ;
(PID.TID 0000.0001) selectFindRoSurf=  /* select how Surf.Ref. pressure is defined */
(PID.TID 0000.0001)                       0
(PID.TID 0000.0001)     ;
(PID.TID 0000.0001) rhonil =   /* Reference density ( kg/m^3 ) */
(PID.TID 0000.0001)                 1.000000000000000E+00
(PID.TID 0000.0001)     ;
(PID.TID 0000.0001) rhoConst =   /* Reference density ( kg/m^3 ) */
(PID.TID 0000.0001)                 1.000000000000000E+00
(PID.TID 0000.0001)     ;
(PID.TID 0000.0001) rhoFacC = /* normalized Reference density @ cell-Center (-) */
(PID.TID 0000.0001)    40 @  1.000000000000000E+00              /* K =  1: 40 */
(PID.TID 0000.0001)     ;
(PID.TID 0000.0001) rhoFacF = /* normalized Reference density @ W-Interface (-) */
(PID.TID 0000.0001)    41 @  1.000000000000000E+00              /* K =  1: 41 */
(PID.TID 0000.0001)     ;
(PID.TID 0000.0001) rhoConstFresh =   /* Reference density ( kg/m^3 ) */
(PID.TID 0000.0001)                 1.000000000000000E+00
(PID.TID 0000.0001)     ;
(PID.TID 0000.0001) gravity =   /* Gravitational acceleration ( m/s^2 ) */
(PID.TID 0000.0001)                 9.810000000000000E+00
(PID.TID 0000.0001)     ;
(PID.TID 0000.0001) gBaro =   /* Barotropic gravity ( m/s^2 ) */
(PID.TID 0000.0001)                 9.810000000000000E+00
(PID.TID 0000.0001)     ;
(PID.TID 0000.0001) rotationPeriod =   /* Rotation Period ( s ) */
(PID.TID 0000.0001)                 8.640000000000000E+04
(PID.TID 0000.0001)     ;
(PID.TID 0000.0001) omega =   /* Angular velocity ( rad/s ) */
(PID.TID 0000.0001)                 7.272205216643040E-05
(PID.TID 0000.0001)     ;
(PID.TID 0000.0001) f0 =   /* Reference coriolis parameter ( 1/s ) */
(PID.TID 0000.0001)                 1.000000000000000E-04
(PID.TID 0000.0001)     ;
(PID.TID 0000.0001) beta =   /* Beta ( 1/(m.s) ) */
(PID.TID 0000.0001)                 9.999999999999999E-12
(PID.TID 0000.0001)     ;
(PID.TID 0000.0001) fPrime =   /* Second coriolis parameter ( 1/s ) */
(PID.TID 0000.0001)                 0.000000000000000E+00
(PID.TID 0000.0001)     ;
(PID.TID 0000.0001) rigidLid =   /* Rigid lid on/off flag */
(PID.TID 0000.0001)                   F
(PID.TID 0000.0001)     ;
(PID.TID 0000.0001) implicitFreeSurface =   /* Implicit free surface on/off flag */
(PID.TID 0000.0001)                   T
(PID.TID 0000.0001)     ;
(PID.TID 0000.0001) freeSurfFac =   /* Implicit free surface factor */
(PID.TID 0000.0001)                 1.000000000000000E+00
(PID.TID 0000.0001)     ;
(PID.TID 0000.0001) implicSurfPress =  /* Surface Pressure implicit factor (0-1)*/
(PID.TID 0000.0001)                 1.000000000000000E+00
(PID.TID 0000.0001)     ;
(PID.TID 0000.0001) implicDiv2Dflow =  /* Barot. Flow Div. implicit factor (0-1)*/
(PID.TID 0000.0001)                 1.000000000000000E+00
(PID.TID 0000.0001)     ;
(PID.TID 0000.0001) exactConserv =  /* Exact Volume Conservation on/off flag*/
(PID.TID 0000.0001)                   T
(PID.TID 0000.0001)     ;
(PID.TID 0000.0001) linFSConserveTr = /* Tracer correction for Lin Free Surface on/off flag*/
(PID.TID 0000.0001)                   F
(PID.TID 0000.0001)     ;
(PID.TID 0000.0001) uniformLin_PhiSurf = /* use uniform Bo_surf on/off flag*/
(PID.TID 0000.0001)                   F
(PID.TID 0000.0001)     ;
(PID.TID 0000.0001) hFacMin =   /* minimum partial cell factor (hFac) */
(PID.TID 0000.0001)                 5.000000000000000E-01
(PID.TID 0000.0001)     ;
(PID.TID 0000.0001) hFacMinDr = /* minimum partial cell thickness (Pa) */
(PID.TID 0000.0001)                 5.000000000000000E-01
(PID.TID 0000.0001)     ;
(PID.TID 0000.0001) nonlinFreeSurf = /* Non-linear Free Surf. options (-1,0,1,2,3)*/
(PID.TID 0000.0001)                       4
(PID.TID 0000.0001)      -1,0= Off ; 1,2,3= On, 2=+rescale gU,gV, 3=+update cg2d solv.
(PID.TID 0000.0001)     ;
(PID.TID 0000.0001) hFacInf =   /* lower threshold for hFac (nonlinFreeSurf only)*/
(PID.TID 0000.0001)                 2.000000000000000E-01
(PID.TID 0000.0001)     ;
(PID.TID 0000.0001) hFacSup =   /* upper threshold for hFac (nonlinFreeSurf only)*/
(PID.TID 0000.0001)                 2.000000000000000E+00
(PID.TID 0000.0001)     ;
(PID.TID 0000.0001) select_rStar = /* r* Vertical coord. options (=0 r coord.; >0 uses r*)*/
(PID.TID 0000.0001)                       2
(PID.TID 0000.0001)     ;
(PID.TID 0000.0001) selectAddFluid = /* option for mass source/sink of fluid (=0: off) */
(PID.TID 0000.0001)                       0
(PID.TID 0000.0001)     ;
(PID.TID 0000.0001) useRealFreshWaterFlux = /* Real Fresh Water Flux on/off flag*/
(PID.TID 0000.0001)                   F
(PID.TID 0000.0001)     ;
(PID.TID 0000.0001) temp_EvPrRn = /* Temp. of Evap/Prec/R (UNSET=use local T)(oC)*/
(PID.TID 0000.0001)                 1.234567000000000E+05
(PID.TID 0000.0001)     ;
(PID.TID 0000.0001) salt_EvPrRn = /* Salin. of Evap/Prec/R (UNSET=use local S)(psu)*/
(PID.TID 0000.0001)                 0.000000000000000E+00
(PID.TID 0000.0001)     ;
(PID.TID 0000.0001) temp_addMass = /* Temp. of addMass array (UNSET=use local T)(oC)*/
(PID.TID 0000.0001)                 1.234567000000000E+05
(PID.TID 0000.0001)     ;
(PID.TID 0000.0001) salt_addMass = /* Salin. of addMass array (UNSET=use local S)(psu)*/
(PID.TID 0000.0001)                 0.000000000000000E+00
(PID.TID 0000.0001)     ;
(PID.TID 0000.0001) convertFW2Salt = /* convert F.W. Flux to Salt Flux (-1=use local S)(psu)*/
(PID.TID 0000.0001)                 3.500000000000000E+01
(PID.TID 0000.0001)     ;
(PID.TID 0000.0001) use3Dsolver = /* use 3-D pressure solver on/off flag */
(PID.TID 0000.0001)                   F
(PID.TID 0000.0001)     ;
(PID.TID 0000.0001) nonHydrostatic =  /* Non-Hydrostatic on/off flag */
(PID.TID 0000.0001)                   F
(PID.TID 0000.0001)     ;
(PID.TID 0000.0001) nh_Am2 = /* Non-Hydrostatic terms scaling factor */
(PID.TID 0000.0001)                 1.000000000000000E+00
(PID.TID 0000.0001)     ;
(PID.TID 0000.0001) implicitNHPress = /* Non-Hyd Pressure implicit factor (0-1)*/
(PID.TID 0000.0001)                 1.000000000000000E+00
(PID.TID 0000.0001)     ;
(PID.TID 0000.0001) selectNHfreeSurf = /* Non-Hyd (free-)Surface option */
(PID.TID 0000.0001)                       0
(PID.TID 0000.0001)     ;
(PID.TID 0000.0001) quasiHydrostatic = /* Quasi-Hydrostatic on/off flag */
(PID.TID 0000.0001)                   F
(PID.TID 0000.0001)     ;
(PID.TID 0000.0001) momStepping =  /* Momentum equation on/off flag */
(PID.TID 0000.0001)                   T
(PID.TID 0000.0001)     ;
(PID.TID 0000.0001) vectorInvariantMomentum= /* Vector-Invariant Momentum on/off */
(PID.TID 0000.0001)                   T
(PID.TID 0000.0001)     ;
(PID.TID 0000.0001) momAdvection =  /* Momentum advection on/off flag */
(PID.TID 0000.0001)                   T
(PID.TID 0000.0001)     ;
(PID.TID 0000.0001) momViscosity =  /* Momentum viscosity on/off flag */
(PID.TID 0000.0001)                   T
(PID.TID 0000.0001)     ;
(PID.TID 0000.0001) momImplVertAdv= /* Momentum implicit vert. advection on/off*/
(PID.TID 0000.0001)                   F
(PID.TID 0000.0001)     ;
(PID.TID 0000.0001) implicitViscosity = /* Implicit viscosity on/off flag */
(PID.TID 0000.0001)                   F
(PID.TID 0000.0001)     ;
(PID.TID 0000.0001) metricTerms =  /* metric-Terms on/off flag */
(PID.TID 0000.0001)                   F
(PID.TID 0000.0001)     ;
(PID.TID 0000.0001) useNHMTerms = /* Non-Hydrostatic Metric-Terms on/off */
(PID.TID 0000.0001)                   F
(PID.TID 0000.0001)     ;
(PID.TID 0000.0001) selectCoriMap = /* Coriolis Map options (0,1,2,3)*/
(PID.TID 0000.0001)                       2
(PID.TID 0000.0001)     0= f-Plane ; 1= Beta-Plane ; 2= Spherical ; 3= read from file
(PID.TID 0000.0001)     ;
(PID.TID 0000.0001) use3dCoriolis = /* 3-D Coriolis on/off flag */
(PID.TID 0000.0001)                   F
(PID.TID 0000.0001)     ;
(PID.TID 0000.0001) useCoriolis =  /* Coriolis on/off flag */
(PID.TID 0000.0001)                   T
(PID.TID 0000.0001)     ;
(PID.TID 0000.0001) useCDscheme =  /* CD scheme on/off flag */
(PID.TID 0000.0001)                   F
(PID.TID 0000.0001)     ;
(PID.TID 0000.0001) useJamartWetPoints= /* Coriolis WetPoints method flag */
(PID.TID 0000.0001)                   F
(PID.TID 0000.0001)     ;
(PID.TID 0000.0001) useJamartMomAdv= /* V.I. Non-linear terms Jamart flag */
(PID.TID 0000.0001)                   F
(PID.TID 0000.0001)     ;
(PID.TID 0000.0001) useAbsVorticity= /* Work with f+zeta in Coriolis */
(PID.TID 0000.0001)                   T
(PID.TID 0000.0001)     ;
(PID.TID 0000.0001) selectVortScheme= /* Scheme selector for Vorticity-Term */
(PID.TID 0000.0001)                       2
(PID.TID 0000.0001)    = 0 : enstrophy (Shallow-Water Eq.) conserving scheme by Sadourny, JAS 75
(PID.TID 0000.0001)    = 1 : same as 0 with modified hFac
(PID.TID 0000.0001)    = 2 : energy conserving scheme (used by Sadourny in JAS 75 paper)
(PID.TID 0000.0001)    = 3 : energy (general) and enstrophy (2D, nonDiv.) conserving scheme
(PID.TID 0000.0001)          from Sadourny (Burridge & Haseler, ECMWF Rep.4, 1977)
(PID.TID 0000.0001)     ;
(PID.TID 0000.0001) upwindVorticity= /* Upwind bias vorticity flag */
(PID.TID 0000.0001)                   F
(PID.TID 0000.0001)     ;
(PID.TID 0000.0001) highOrderVorticity= /* High order interp. of vort. flag */
(PID.TID 0000.0001)                   F
(PID.TID 0000.0001)     ;
(PID.TID 0000.0001) upwindShear= /* Upwind vertical Shear advection flag */
(PID.TID 0000.0001)                   F
(PID.TID 0000.0001)     ;
(PID.TID 0000.0001) selectKEscheme= /* Kinetic Energy scheme selector */
(PID.TID 0000.0001)                       3
(PID.TID 0000.0001)     ;
(PID.TID 0000.0001) momForcing =  /* Momentum forcing on/off flag */
(PID.TID 0000.0001)                   T
(PID.TID 0000.0001)     ;
(PID.TID 0000.0001) momPressureForcing =  /* Momentum pressure term on/off flag */
(PID.TID 0000.0001)                   T
(PID.TID 0000.0001)     ;
(PID.TID 0000.0001) implicitIntGravWave= /* Implicit Internal Gravity Wave flag */
(PID.TID 0000.0001)                   F
(PID.TID 0000.0001)     ;
(PID.TID 0000.0001) staggerTimeStep =   /* Stagger time stepping on/off flag */
(PID.TID 0000.0001)                   T
(PID.TID 0000.0001)     ;
(PID.TID 0000.0001) multiDimAdvection =   /* enable/disable Multi-Dim Advection */
(PID.TID 0000.0001)                   T
(PID.TID 0000.0001)     ;
(PID.TID 0000.0001) useMultiDimAdvec =   /* Multi-Dim Advection is/is-not used */
(PID.TID 0000.0001)                   F
(PID.TID 0000.0001)     ;
(PID.TID 0000.0001) implicitDiffusion = /* Implicit Diffusion on/off flag */
(PID.TID 0000.0001)                   F
(PID.TID 0000.0001)     ;
(PID.TID 0000.0001) tempStepping =  /* Temperature equation on/off flag */
(PID.TID 0000.0001)                   T
(PID.TID 0000.0001)     ;
(PID.TID 0000.0001) tempAdvection=  /* Temperature advection on/off flag */
(PID.TID 0000.0001)                   T
(PID.TID 0000.0001)     ;
(PID.TID 0000.0001) tempImplVertAdv = /* Temp. implicit vert. advection on/off */
(PID.TID 0000.0001)                   F
(PID.TID 0000.0001)     ;
(PID.TID 0000.0001) tempForcing  =  /* Temperature forcing on/off flag */
(PID.TID 0000.0001)                   T
(PID.TID 0000.0001)     ;
(PID.TID 0000.0001) tempIsActiveTr = /* Temp. is a dynamically Active Tracer */
(PID.TID 0000.0001)                   T
(PID.TID 0000.0001)     ;
(PID.TID 0000.0001) saltStepping =  /* Salinity equation on/off flag */
(PID.TID 0000.0001)                   T
(PID.TID 0000.0001)     ;
(PID.TID 0000.0001) saltAdvection=  /* Salinity advection on/off flag */
(PID.TID 0000.0001)                   T
(PID.TID 0000.0001)     ;
(PID.TID 0000.0001) saltImplVertAdv = /* Sali. implicit vert. advection on/off */
(PID.TID 0000.0001)                   F
(PID.TID 0000.0001)     ;
(PID.TID 0000.0001) saltForcing  =  /* Salinity forcing on/off flag */
(PID.TID 0000.0001)                   T
(PID.TID 0000.0001)     ;
(PID.TID 0000.0001) saltIsActiveTr = /* Salt  is a dynamically Active Tracer */
(PID.TID 0000.0001)                   T
(PID.TID 0000.0001)     ;
(PID.TID 0000.0001)  readBinaryPrec = /* Precision used for reading binary files */
(PID.TID 0000.0001)                      64
(PID.TID 0000.0001)     ;
(PID.TID 0000.0001) writeBinaryPrec = /* Precision used for writing binary files */
(PID.TID 0000.0001)                      64
(PID.TID 0000.0001)     ;
(PID.TID 0000.0001)  globalFiles = /* write "global" (=not per tile) files */
(PID.TID 0000.0001)                   F
(PID.TID 0000.0001)     ;
(PID.TID 0000.0001)  useSingleCpuIO = /* only master MPI process does I/O */
(PID.TID 0000.0001)                   F
(PID.TID 0000.0001)     ;
(PID.TID 0000.0001)  debugMode  =  /* Debug Mode on/off flag */
(PID.TID 0000.0001)                   F
(PID.TID 0000.0001)     ;
(PID.TID 0000.0001)    debLevA  =  /* 1rst level of debugging */
(PID.TID 0000.0001)                       1
(PID.TID 0000.0001)     ;
(PID.TID 0000.0001)    debLevB  =  /* 2nd  level of debugging */
(PID.TID 0000.0001)                       2
(PID.TID 0000.0001)     ;
(PID.TID 0000.0001)  debugLevel =  /* select debugging level */
(PID.TID 0000.0001)                       1
(PID.TID 0000.0001)     ;
(PID.TID 0000.0001) //
(PID.TID 0000.0001) // Elliptic solver(s) paramters ( PARM02 in namelist )
(PID.TID 0000.0001) //
(PID.TID 0000.0001) cg2dMaxIters =   /* Upper limit on 2d con. grad iterations  */
(PID.TID 0000.0001)                     200
(PID.TID 0000.0001)     ;
(PID.TID 0000.0001) cg2dChkResFreq =   /* 2d con. grad convergence test frequency */
(PID.TID 0000.0001)                       1
(PID.TID 0000.0001)     ;
(PID.TID 0000.0001) cg2dTargetResidual =   /* 2d con. grad target residual  */
(PID.TID 0000.0001)                 1.000000000000000E-07
(PID.TID 0000.0001)     ;
(PID.TID 0000.0001) cg2dTargetResWunit =   /* CG2d target residual [W units] */
(PID.TID 0000.0001)                 1.000000000000000E-17
(PID.TID 0000.0001)     ;
(PID.TID 0000.0001) cg2dPreCondFreq =   /* Freq. for updating cg2d preconditioner */
(PID.TID 0000.0001)                       1
(PID.TID 0000.0001)     ;
(PID.TID 0000.0001) useSRCGSolver =  /* use single reduction CG solver(s) */
(PID.TID 0000.0001)                   F
(PID.TID 0000.0001)     ;
(PID.TID 0000.0001) //
(PID.TID 0000.0001) // Time stepping paramters ( PARM03 in namelist )
(PID.TID 0000.0001) //
(PID.TID 0000.0001) deltaTmom =   /* Momentum equation timestep ( s ) */
(PID.TID 0000.0001)                 1.200000000000000E+02
(PID.TID 0000.0001)     ;
(PID.TID 0000.0001) deltaTfreesurf = /* FreeSurface equation timestep ( s ) */
(PID.TID 0000.0001)                 1.200000000000000E+02
(PID.TID 0000.0001)     ;
(PID.TID 0000.0001) dTtracerLev =  /* Tracer equation timestep ( s ) */
(PID.TID 0000.0001)    40 @  1.200000000000000E+02              /* K =  1: 40 */
(PID.TID 0000.0001)     ;
(PID.TID 0000.0001) deltaTClock  =   /* Model clock timestep ( s ) */
(PID.TID 0000.0001)                 1.200000000000000E+02
(PID.TID 0000.0001)     ;
(PID.TID 0000.0001) cAdjFreq =   /* Convective adjustment interval ( s ) */
(PID.TID 0000.0001)                 0.000000000000000E+00
(PID.TID 0000.0001)     ;
(PID.TID 0000.0001) momForcingOutAB = /* =1: take Momentum Forcing out of Adams-Bash. stepping */
(PID.TID 0000.0001)                       1
(PID.TID 0000.0001)     ;
(PID.TID 0000.0001) tracForcingOutAB = /* =1: take T,S,pTr Forcing out of Adams-Bash. stepping */
(PID.TID 0000.0001)                       1
(PID.TID 0000.0001)     ;
(PID.TID 0000.0001) momDissip_In_AB = /* put Dissipation Tendency in Adams-Bash. stepping */
(PID.TID 0000.0001)                   T
(PID.TID 0000.0001)     ;
(PID.TID 0000.0001) doAB_onGtGs = /* apply AB on Tendencies (rather than on T,S)*/
(PID.TID 0000.0001)                   T
(PID.TID 0000.0001)     ;
(PID.TID 0000.0001) abEps =   /* Adams-Bashforth-2 stabilizing weight */
(PID.TID 0000.0001)                 1.000000000000000E-01
(PID.TID 0000.0001)     ;
(PID.TID 0000.0001) pickupStrictlyMatch= /* stop if pickup do not strictly match */
(PID.TID 0000.0001)                   T
(PID.TID 0000.0001)     ;
(PID.TID 0000.0001) nIter0   =   /* Run starting timestep number */
(PID.TID 0000.0001)                       0
(PID.TID 0000.0001)     ;
(PID.TID 0000.0001) nTimeSteps = /* Number of timesteps */
(PID.TID 0000.0001)                      15
(PID.TID 0000.0001)     ;
(PID.TID 0000.0001) nEndIter =   /* Run ending timestep number */
(PID.TID 0000.0001)                      15
(PID.TID 0000.0001)     ;
(PID.TID 0000.0001) baseTime =   /* Model base time ( s ) */
(PID.TID 0000.0001)                 0.000000000000000E+00
(PID.TID 0000.0001)     ;
(PID.TID 0000.0001) startTime =  /* Run start time ( s ) */
(PID.TID 0000.0001)                 0.000000000000000E+00
(PID.TID 0000.0001)     ;
(PID.TID 0000.0001) endTime  =   /* Integration ending time ( s ) */
(PID.TID 0000.0001)                 1.800000000000000E+03
(PID.TID 0000.0001)     ;
(PID.TID 0000.0001) pChkPtFreq = /* Permanent restart/pickup file interval ( s ) */
(PID.TID 0000.0001)                 0.000000000000000E+00
(PID.TID 0000.0001)     ;
(PID.TID 0000.0001) chkPtFreq  = /* Rolling restart/pickup file interval ( s ) */
(PID.TID 0000.0001)                 0.000000000000000E+00
(PID.TID 0000.0001)     ;
(PID.TID 0000.0001) pickup_write_mdsio =   /* Model IO flag. */
(PID.TID 0000.0001)                   T
(PID.TID 0000.0001)     ;
(PID.TID 0000.0001) pickup_read_mdsio =   /* Model IO flag. */
(PID.TID 0000.0001)                   T
(PID.TID 0000.0001)     ;
(PID.TID 0000.0001) pickup_write_immed =   /* Model IO flag. */
(PID.TID 0000.0001)                   F
(PID.TID 0000.0001)     ;
(PID.TID 0000.0001) writePickupAtEnd =   /* Model IO flag. */
(PID.TID 0000.0001)                   F
(PID.TID 0000.0001)     ;
(PID.TID 0000.0001) dumpFreq =   /* Model state write out interval ( s ). */
(PID.TID 0000.0001)                 0.000000000000000E+00
(PID.TID 0000.0001)     ;
(PID.TID 0000.0001) dumpInitAndLast= /* write out Initial & Last iter. model state */
(PID.TID 0000.0001)                   F
(PID.TID 0000.0001)     ;
(PID.TID 0000.0001) snapshot_mdsio =   /* Model IO flag. */
(PID.TID 0000.0001)                   T
(PID.TID 0000.0001)     ;
(PID.TID 0000.0001) monitorFreq =   /* Monitor output interval ( s ). */
(PID.TID 0000.0001)                 1.200000000000000E+02
(PID.TID 0000.0001)     ;
(PID.TID 0000.0001) monitorSelect = /* select group of variables to monitor */
(PID.TID 0000.0001)                       2
(PID.TID 0000.0001)     ;
(PID.TID 0000.0001) monitor_stdio =   /* Model IO flag. */
(PID.TID 0000.0001)                   T
(PID.TID 0000.0001)     ;
(PID.TID 0000.0001) externForcingPeriod =   /* forcing period (s) */
(PID.TID 0000.0001)                 0.000000000000000E+00
(PID.TID 0000.0001)     ;
(PID.TID 0000.0001) externForcingCycle =   /* period of the cyle (s). */
(PID.TID 0000.0001)                 0.000000000000000E+00
(PID.TID 0000.0001)     ;
(PID.TID 0000.0001) tauThetaClimRelax =   /* relaxation time scale (s) */
(PID.TID 0000.0001)                 0.000000000000000E+00
(PID.TID 0000.0001)     ;
(PID.TID 0000.0001) tauSaltClimRelax =   /* relaxation time scale (s) */
(PID.TID 0000.0001)                 0.000000000000000E+00
(PID.TID 0000.0001)     ;
(PID.TID 0000.0001) latBandClimRelax =   /* max. Lat. where relaxation */
(PID.TID 0000.0001)                 1.800000000000000E+02
(PID.TID 0000.0001)     ;
(PID.TID 0000.0001) //
(PID.TID 0000.0001) // Gridding paramters ( PARM04 in namelist )
(PID.TID 0000.0001) //
(PID.TID 0000.0001) usingCartesianGrid = /* Cartesian coordinates flag ( True/False ) */
(PID.TID 0000.0001)                   F
(PID.TID 0000.0001)     ;
(PID.TID 0000.0001) usingCylindricalGrid = /* Cylindrical coordinates flag ( True/False ) */
(PID.TID 0000.0001)                   F
(PID.TID 0000.0001)     ;
(PID.TID 0000.0001) usingSphericalPolarGrid = /* Spherical coordinates flag ( True/False ) */
(PID.TID 0000.0001)                   F
(PID.TID 0000.0001)     ;
(PID.TID 0000.0001) usingCurvilinearGrid = /* Curvilinear coordinates flag ( True/False ) */
(PID.TID 0000.0001)                   T
(PID.TID 0000.0001)     ;
(PID.TID 0000.0001) selectSigmaCoord = /* Hybrid-Sigma Vert. Coordinate option */
(PID.TID 0000.0001)                       0
(PID.TID 0000.0001)     ;
(PID.TID 0000.0001) Ro_SeaLevel = /* r(1) ( units of r == Pa ) */
(PID.TID 0000.0001)                 1.000000000000000E+05
(PID.TID 0000.0001)     ;
(PID.TID 0000.0001) rSigmaBnd = /* r/sigma transition ( units of r == Pa ) */
(PID.TID 0000.0001)                 1.234567000000000E+05
(PID.TID 0000.0001)     ;
(PID.TID 0000.0001) rkSign =   /* index orientation relative to vertical coordinate */
(PID.TID 0000.0001)                -1.000000000000000E+00
(PID.TID 0000.0001)     ;
(PID.TID 0000.0001) gravitySign = /* gravity orientation relative to vertical coordinate */
(PID.TID 0000.0001)                 1.000000000000000E+00
(PID.TID 0000.0001)     ;
(PID.TID 0000.0001) mass2rUnit = /* convert mass per unit area [kg/m2] to r-units [Pa] */
(PID.TID 0000.0001)                 9.810000000000000E+00
(PID.TID 0000.0001)     ;
(PID.TID 0000.0001) rUnit2mass = /* convert r-units [Pa] to mass per unit area [kg/m2] */
(PID.TID 0000.0001)                 1.019367991845056E-01
(PID.TID 0000.0001)     ;
(PID.TID 0000.0001) drC =   /* C spacing ( units of r ) */
(PID.TID 0000.0001)                 1.250000000000000E+03,      /* K =  1 */
(PID.TID 0000.0001)    39 @  2.500000000000000E+03              /* K =  2: 40 */
(PID.TID 0000.0001)     ;
(PID.TID 0000.0001) drF =   /* W spacing ( units of r ) */
(PID.TID 0000.0001)    40 @  2.500000000000000E+03              /* K =  1: 40 */
(PID.TID 0000.0001)     ;
(PID.TID 0000.0001) xgOrigin = /* X-axis origin of West  edge (cartesian: m, lat-lon: deg.) */
(PID.TID 0000.0001)                 0.000000000000000E+00
(PID.TID 0000.0001)     ;
(PID.TID 0000.0001) ygOrigin = /* Y-axis origin of South edge (cartesian: m, lat-lon: deg.) */
(PID.TID 0000.0001)                 0.000000000000000E+00
(PID.TID 0000.0001)     ;
(PID.TID 0000.0001) rSphere =  /* Radius ( ignored - cartesian, m - spherical ) */
(PID.TID 0000.0001)                 6.370000000000000E+06
(PID.TID 0000.0001)     ;
(PID.TID 0000.0001) radius_fromHorizGrid = /* sphere Radius of input horiz. grid */
(PID.TID 0000.0001)                 6.370000000000000E+06
(PID.TID 0000.0001)     ;
(PID.TID 0000.0001) deepAtmosphere = /* Deep/Shallow Atmosphere flag (True/False) */
(PID.TID 0000.0001)                   F
(PID.TID 0000.0001)     ;
(PID.TID 0000.0001) xC =  /* xC(:,1,:,1) : P-point X coord ( deg. or m if cartesian) */
(PID.TID 0000.0001)                -4.439521994760536E+01,      /* I =  1 */
(PID.TID 0000.0001)                -4.295641272275883E+01,      /* I =  2 */
(PID.TID 0000.0001)                -4.122055553388957E+01,      /* I =  3 */
(PID.TID 0000.0001)      . . .
(PID.TID 0000.0001)                 8.070819219728060E+01,      /* I = 46 */
(PID.TID 0000.0001)                 8.439652466417766E+01,      /* I = 47 */
(PID.TID 0000.0001)                 8.812739148696656E+01,      /* I = 48 */
(PID.TID 0000.0001)                 9.187260851303344E+01,      /* I = 49 */
(PID.TID 0000.0001)                 9.560347533582234E+01,      /* I = 50 */
(PID.TID 0000.0001)                 9.929180780271940E+01,      /* I = 51 */
(PID.TID 0000.0001)      . . .
(PID.TID 0000.0001)                 1.321863035748696E+02,      /* I = 94 */
(PID.TID 0000.0001)                 1.337919453120370E+02,      /* I = 95 */
(PID.TID 0000.0001)                 1.350000000000000E+02,      /* I = 96 */
(PID.TID 0000.0001)                 1.356047800523947E+02,      /* I = 97 */
(PID.TID 0000.0001)                 1.358367907661329E+02,      /* I = 98 */
(PID.TID 0000.0001)                 1.359720382181193E+02,      /* I = 99 */
(PID.TID 0000.0001)      . . .
(PID.TID 0000.0001)                -1.336511021209287E+02,      /* I =142 */
(PID.TID 0000.0001)                -1.336469399409420E+02,      /* I =143 */
(PID.TID 0000.0001)                -1.336449032499283E+02,      /* I =144 */
(PID.TID 0000.0001)                -1.336449032499283E+02,      /* I =145 */
(PID.TID 0000.0001)                -1.336469399409420E+02,      /* I =146 */
(PID.TID 0000.0001)                -1.336511021209287E+02,      /* I =147 */
(PID.TID 0000.0001)      . . .
(PID.TID 0000.0001)                 1.378136964251304E+02,      /* I =190 */
(PID.TID 0000.0001)                 1.362080546879630E+02,      /* I =191 */
(PID.TID 0000.0001)                 1.350000000000000E+02       /* I =192 */
(PID.TID 0000.0001)     ;
(PID.TID 0000.0001) yC =  /* yC(1,:,1,:) : P-point Y coord ( deg. or m if cartesian) */
(PID.TID 0000.0001)                -3.497677942598243E+01,      /* J =  1 */
(PID.TID 0000.0001)                -3.374005967394886E+01,      /* J =  2 */
(PID.TID 0000.0001)                -3.220655175667454E+01,      /* J =  3 */
(PID.TID 0000.0001)                -3.045756348838641E+01,      /* J =  4 */
(PID.TID 0000.0001)                -2.853728129852918E+01,      /* J =  5 */
(PID.TID 0000.0001)                -2.647426640173173E+01,      /* J =  6 */
(PID.TID 0000.0001)                -2.428936657094636E+01,      /* J =  7 */
(PID.TID 0000.0001)                -2.199915808312262E+01,      /* J =  8 */
(PID.TID 0000.0001)                -1.961768597440146E+01,      /* J =  9 */
(PID.TID 0000.0001)                -1.715743888281371E+01,      /* J = 10 */
(PID.TID 0000.0001)                -1.462993396899330E+01,      /* J = 11 */
(PID.TID 0000.0001)                -1.204608340464756E+01,      /* J = 12 */
(PID.TID 0000.0001)                -9.416429130284818E+00,      /* J = 13 */
(PID.TID 0000.0001)                -6.751293662992216E+00,      /* J = 14 */
(PID.TID 0000.0001)                -4.060875511835959E+00,      /* J = 15 */
(PID.TID 0000.0001)                -1.355307764409121E+00,      /* J = 16 */
(PID.TID 0000.0001)                 1.355307764409121E+00,      /* J = 17 */
(PID.TID 0000.0001)                 4.060875511835959E+00,      /* J = 18 */
(PID.TID 0000.0001)                 6.751293662992216E+00,      /* J = 19 */
(PID.TID 0000.0001)                 9.416429130284818E+00,      /* J = 20 */
(PID.TID 0000.0001)                 1.204608340464756E+01,      /* J = 21 */
(PID.TID 0000.0001)                 1.462993396899330E+01,      /* J = 22 */
(PID.TID 0000.0001)                 1.715743888281371E+01,      /* J = 23 */
(PID.TID 0000.0001)                 1.961768597440146E+01,      /* J = 24 */
(PID.TID 0000.0001)                 2.199915808312262E+01,      /* J = 25 */
(PID.TID 0000.0001)                 2.428936657094636E+01,      /* J = 26 */
(PID.TID 0000.0001)                 2.647426640173173E+01,      /* J = 27 */
(PID.TID 0000.0001)                 2.853728129852918E+01,      /* J = 28 */
(PID.TID 0000.0001)                 3.045756348838641E+01,      /* J = 29 */
(PID.TID 0000.0001)                 3.220655175667454E+01,      /* J = 30 */
(PID.TID 0000.0001)                 3.374005967394886E+01,      /* J = 31 */
(PID.TID 0000.0001)                 3.497677942598243E+01       /* J = 32 */
(PID.TID 0000.0001)     ;
(PID.TID 0000.0001) rcoord = /* P-point R coordinate (  units of r ) */
(PID.TID 0000.0001)                 9.875000000000000E+04,      /* K =  1 */
(PID.TID 0000.0001)                 9.625000000000000E+04,      /* K =  2 */
(PID.TID 0000.0001)                 9.375000000000000E+04,      /* K =  3 */
(PID.TID 0000.0001)                 9.125000000000000E+04,      /* K =  4 */
(PID.TID 0000.0001)                 8.875000000000000E+04,      /* K =  5 */
(PID.TID 0000.0001)                 8.625000000000000E+04,      /* K =  6 */
(PID.TID 0000.0001)                 8.375000000000000E+04,      /* K =  7 */
(PID.TID 0000.0001)                 8.125000000000000E+04,      /* K =  8 */
(PID.TID 0000.0001)                 7.875000000000000E+04,      /* K =  9 */
(PID.TID 0000.0001)                 7.625000000000000E+04,      /* K = 10 */
(PID.TID 0000.0001)                 7.375000000000000E+04,      /* K = 11 */
(PID.TID 0000.0001)                 7.125000000000000E+04,      /* K = 12 */
(PID.TID 0000.0001)                 6.875000000000000E+04,      /* K = 13 */
(PID.TID 0000.0001)                 6.625000000000000E+04,      /* K = 14 */
(PID.TID 0000.0001)                 6.375000000000000E+04,      /* K = 15 */
(PID.TID 0000.0001)                 6.125000000000000E+04,      /* K = 16 */
(PID.TID 0000.0001)                 5.875000000000000E+04,      /* K = 17 */
(PID.TID 0000.0001)                 5.625000000000000E+04,      /* K = 18 */
(PID.TID 0000.0001)                 5.375000000000000E+04,      /* K = 19 */
(PID.TID 0000.0001)                 5.125000000000000E+04,      /* K = 20 */
(PID.TID 0000.0001)                 4.875000000000000E+04,      /* K = 21 */
(PID.TID 0000.0001)                 4.625000000000000E+04,      /* K = 22 */
(PID.TID 0000.0001)                 4.375000000000000E+04,      /* K = 23 */
(PID.TID 0000.0001)                 4.125000000000000E+04,      /* K = 24 */
(PID.TID 0000.0001)                 3.875000000000000E+04,      /* K = 25 */
(PID.TID 0000.0001)                 3.625000000000000E+04,      /* K = 26 */
(PID.TID 0000.0001)                 3.375000000000000E+04,      /* K = 27 */
(PID.TID 0000.0001)                 3.125000000000000E+04,      /* K = 28 */
(PID.TID 0000.0001)                 2.875000000000000E+04,      /* K = 29 */
(PID.TID 0000.0001)                 2.625000000000000E+04,      /* K = 30 */
(PID.TID 0000.0001)                 2.375000000000000E+04,      /* K = 31 */
(PID.TID 0000.0001)                 2.125000000000000E+04,      /* K = 32 */
(PID.TID 0000.0001)                 1.875000000000000E+04,      /* K = 33 */
(PID.TID 0000.0001)                 1.625000000000000E+04,      /* K = 34 */
(PID.TID 0000.0001)                 1.375000000000000E+04,      /* K = 35 */
(PID.TID 0000.0001)                 1.125000000000000E+04,      /* K = 36 */
(PID.TID 0000.0001)                 8.750000000000000E+03,      /* K = 37 */
(PID.TID 0000.0001)                 6.250000000000000E+03,      /* K = 38 */
(PID.TID 0000.0001)                 3.750000000000000E+03,      /* K = 39 */
(PID.TID 0000.0001)                 1.250000000000000E+03       /* K = 40 */
(PID.TID 0000.0001)     ;
(PID.TID 0000.0001) rF =   /* W-Interf. R coordinate (  units of r ) */
(PID.TID 0000.0001)                 1.000000000000000E+05,      /* K =  1 */
(PID.TID 0000.0001)                 9.750000000000000E+04,      /* K =  2 */
(PID.TID 0000.0001)                 9.500000000000000E+04,      /* K =  3 */
(PID.TID 0000.0001)                 9.250000000000000E+04,      /* K =  4 */
(PID.TID 0000.0001)                 9.000000000000000E+04,      /* K =  5 */
(PID.TID 0000.0001)                 8.750000000000000E+04,      /* K =  6 */
(PID.TID 0000.0001)                 8.500000000000000E+04,      /* K =  7 */
(PID.TID 0000.0001)                 8.250000000000000E+04,      /* K =  8 */
(PID.TID 0000.0001)                 8.000000000000000E+04,      /* K =  9 */
(PID.TID 0000.0001)                 7.750000000000000E+04,      /* K = 10 */
(PID.TID 0000.0001)                 7.500000000000000E+04,      /* K = 11 */
(PID.TID 0000.0001)                 7.250000000000000E+04,      /* K = 12 */
(PID.TID 0000.0001)                 7.000000000000000E+04,      /* K = 13 */
(PID.TID 0000.0001)                 6.750000000000000E+04,      /* K = 14 */
(PID.TID 0000.0001)                 6.500000000000000E+04,      /* K = 15 */
(PID.TID 0000.0001)                 6.250000000000000E+04,      /* K = 16 */
(PID.TID 0000.0001)                 6.000000000000000E+04,      /* K = 17 */
(PID.TID 0000.0001)                 5.750000000000000E+04,      /* K = 18 */
(PID.TID 0000.0001)                 5.500000000000000E+04,      /* K = 19 */
(PID.TID 0000.0001)                 5.250000000000000E+04,      /* K = 20 */
(PID.TID 0000.0001)                 5.000000000000000E+04,      /* K = 21 */
(PID.TID 0000.0001)                 4.750000000000000E+04,      /* K = 22 */
(PID.TID 0000.0001)                 4.500000000000000E+04,      /* K = 23 */
(PID.TID 0000.0001)                 4.250000000000000E+04,      /* K = 24 */
(PID.TID 0000.0001)                 4.000000000000000E+04,      /* K = 25 */
(PID.TID 0000.0001)                 3.750000000000000E+04,      /* K = 26 */
(PID.TID 0000.0001)                 3.500000000000000E+04,      /* K = 27 */
(PID.TID 0000.0001)                 3.250000000000000E+04,      /* K = 28 */
(PID.TID 0000.0001)                 3.000000000000000E+04,      /* K = 29 */
(PID.TID 0000.0001)                 2.750000000000000E+04,      /* K = 30 */
(PID.TID 0000.0001)                 2.500000000000000E+04,      /* K = 31 */
(PID.TID 0000.0001)                 2.250000000000000E+04,      /* K = 32 */
(PID.TID 0000.0001)                 2.000000000000000E+04,      /* K = 33 */
(PID.TID 0000.0001)                 1.750000000000000E+04,      /* K = 34 */
(PID.TID 0000.0001)                 1.500000000000000E+04,      /* K = 35 */
(PID.TID 0000.0001)                 1.250000000000000E+04,      /* K = 36 */
(PID.TID 0000.0001)                 1.000000000000000E+04,      /* K = 37 */
(PID.TID 0000.0001)                 7.500000000000000E+03,      /* K = 38 */
(PID.TID 0000.0001)                 5.000000000000000E+03,      /* K = 39 */
(PID.TID 0000.0001)                 2.500000000000000E+03,      /* K = 40 */
(PID.TID 0000.0001)                 0.000000000000000E+00       /* K = 41 */
(PID.TID 0000.0001)     ;
(PID.TID 0000.0001) deepFacC = /* deep-model grid factor @ cell-Center (-) */
(PID.TID 0000.0001)    40 @  1.000000000000000E+00              /* K =  1: 40 */
(PID.TID 0000.0001)     ;
(PID.TID 0000.0001) deepFacF = /* deep-model grid factor @ W-Interface (-) */
(PID.TID 0000.0001)    41 @  1.000000000000000E+00              /* K =  1: 41 */
(PID.TID 0000.0001)     ;
(PID.TID 0000.0001) rVel2wUnit = /* convert units: rVel -> wSpeed (=1 if z-coord)*/
(PID.TID 0000.0001)                 8.629107324887141E-02,      /* K =  1 */
(PID.TID 0000.0001)                 8.789554435525097E-02,      /* K =  2 */
(PID.TID 0000.0001)                 8.958707285174485E-02,      /* K =  3 */
(PID.TID 0000.0001)                 9.135632543445253E-02,      /* K =  4 */
(PID.TID 0000.0001)                 9.322489597668064E-02,      /* K =  5 */
(PID.TID 0000.0001)                 9.518410825396038E-02,      /* K =  6 */
(PID.TID 0000.0001)                 9.724115789139974E-02,      /* K =  7 */
(PID.TID 0000.0001)                 9.940404644325851E-02,      /* K =  8 */
(PID.TID 0000.0001)                 1.016816995635013E-01,      /* K =  9 */
(PID.TID 0000.0001)                 1.040841068567015E-01,      /* K = 10 */
(PID.TID 0000.0001)                 1.066224882385748E-01,      /* K = 11 */
(PID.TID 0000.0001)                 1.093278889914296E-01,      /* K = 12 */
(PID.TID 0000.0001)                 1.121971647673481E-01,      /* K = 13 */
(PID.TID 0000.0001)                 1.152273209240267E-01,      /* K = 14 */
(PID.TID 0000.0001)                 1.184752359236691E-01,      /* K = 15 */
(PID.TID 0000.0001)                 1.219639446981118E-01,      /* K = 16 */
(PID.TID 0000.0001)                 1.256778876034342E-01,      /* K = 17 */
(PID.TID 0000.0001)                 1.296656690866057E-01,      /* K = 18 */
(PID.TID 0000.0001)                 1.339832291644344E-01,      /* K = 19 */
(PID.TID 0000.0001)                 1.386722588128250E-01,      /* K = 20 */
(PID.TID 0000.0001)                 1.437581146849567E-01,      /* K = 21 */
(PID.TID 0000.0001)                 1.492721071155606E-01,      /* K = 22 */
(PID.TID 0000.0001)                 1.553307147271595E-01,      /* K = 23 */
(PID.TID 0000.0001)                 1.620192314430605E-01,      /* K = 24 */
(PID.TID 0000.0001)                 1.694706487360474E-01,      /* K = 25 */
(PID.TID 0000.0001)                 1.778783754011040E-01,      /* K = 26 */
(PID.TID 0000.0001)                 1.874519323394962E-01,      /* K = 27 */
(PID.TID 0000.0001)                 1.984902707063532E-01,      /* K = 28 */
(PID.TID 0000.0001)                 2.113440200177724E-01,      /* K = 29 */
(PID.TID 0000.0001)                 2.265504904275806E-01,      /* K = 30 */
(PID.TID 0000.0001)                 2.449115784577299E-01,      /* K = 31 */
(PID.TID 0000.0001)                 2.676185844413225E-01,      /* K = 32 */
(PID.TID 0000.0001)                 2.965542048114111E-01,      /* K = 33 */
(PID.TID 0000.0001)                 3.355241677634030E-01,      /* K = 34 */
(PID.TID 0000.0001)                 3.903938719910736E-01,      /* K = 35 */
(PID.TID 0000.0001)                 4.687783677733488E-01,      /* K = 36 */
(PID.TID 0000.0001)                 5.865835402473608E-01,      /* K = 37 */
(PID.TID 0000.0001)                 7.838245492017260E-01,      /* K = 38 */
(PID.TID 0000.0001)                 1.183543929812062E+00,      /* K = 39 */
(PID.TID 0000.0001)                 2.467516267040322E+00,      /* K = 40 */
(PID.TID 0000.0001)                 1.000000000000000E+00       /* K = 41 */
(PID.TID 0000.0001)     ;
(PID.TID 0000.0001) wUnit2rVel = /* convert units: wSpeed -> rVel (=1 if z-coord)*/
(PID.TID 0000.0001)                 1.158868423290910E+01,      /* K =  1 */
(PID.TID 0000.0001)                 1.137714098405557E+01,      /* K =  2 */
(PID.TID 0000.0001)                 1.116232474360304E+01,      /* K =  3 */
(PID.TID 0000.0001)                 1.094614954404545E+01,      /* K =  4 */
(PID.TID 0000.0001)                 1.072674835968861E+01,      /* K =  5 */
(PID.TID 0000.0001)                 1.050595544092196E+01,      /* K =  6 */
(PID.TID 0000.0001)                 1.028371135930748E+01,      /* K =  7 */
(PID.TID 0000.0001)                 1.005995264559795E+01,      /* K =  8 */
(PID.TID 0000.0001)                 9.834611383295076E+00,      /* K =  9 */
(PID.TID 0000.0001)                 9.607614747338481E+00,      /* K = 10 */
(PID.TID 0000.0001)                 9.378884478501709E+00,      /* K = 11 */
(PID.TID 0000.0001)                 9.146796935577820E+00,      /* K = 12 */
(PID.TID 0000.0001)                 8.912881195113963E+00,      /* K = 13 */
(PID.TID 0000.0001)                 8.678497356189808E+00,      /* K = 14 */
(PID.TID 0000.0001)                 8.440582474503593E+00,      /* K = 15 */
(PID.TID 0000.0001)                 8.199144447772863E+00,      /* K = 16 */
(PID.TID 0000.0001)                 7.956849204495017E+00,      /* K = 17 */
(PID.TID 0000.0001)                 7.712141594951279E+00,      /* K = 18 */
(PID.TID 0000.0001)                 7.463620680262331E+00,      /* K = 19 */
(PID.TID 0000.0001)                 7.211247646508485E+00,      /* K = 20 */
(PID.TID 0000.0001)                 6.956129065767744E+00,      /* K = 21 */
(PID.TID 0000.0001)                 6.699175213128324E+00,      /* K = 22 */
(PID.TID 0000.0001)                 6.437876769938987E+00,      /* K = 23 */
(PID.TID 0000.0001)                 6.172106799256340E+00,      /* K = 24 */
(PID.TID 0000.0001)                 5.900726807020797E+00,      /* K = 25 */
(PID.TID 0000.0001)                 5.621818828427380E+00,      /* K = 26 */
(PID.TID 0000.0001)                 5.334700941833394E+00,      /* K = 27 */
(PID.TID 0000.0001)                 5.038030309704204E+00,      /* K = 28 */
(PID.TID 0000.0001)                 4.731621930518346E+00,      /* K = 29 */
(PID.TID 0000.0001)                 4.414027081171387E+00,      /* K = 30 */
(PID.TID 0000.0001)                 4.083106263481918E+00,      /* K = 31 */
(PID.TID 0000.0001)                 3.736661271441923E+00,      /* K = 32 */
(PID.TID 0000.0001)                 3.372064815725456E+00,      /* K = 33 */
(PID.TID 0000.0001)                 2.980411237336431E+00,      /* K = 34 */
(PID.TID 0000.0001)                 2.561515617291414E+00,      /* K = 35 */
(PID.TID 0000.0001)                 2.133204236257534E+00,      /* K = 36 */
(PID.TID 0000.0001)                 1.704787010522495E+00,      /* K = 37 */
(PID.TID 0000.0001)                 1.275795713490263E+00,      /* K = 38 */
(PID.TID 0000.0001)                 8.449200530805752E-01,      /* K = 39 */
(PID.TID 0000.0001)                 4.052658186523149E-01,      /* K = 40 */
(PID.TID 0000.0001)                 1.000000000000000E+00       /* K = 41 */
(PID.TID 0000.0001)     ;
(PID.TID 0000.0001) dBdrRef = /* Vertical grad. of reference buoyancy [(m/s/r)^2] */
(PID.TID 0000.0001)                 0.000000000000000E+00,      /* K =  1 */
(PID.TID 0000.0001)                 2.336813593507078E-07,      /* K =  2 */
(PID.TID 0000.0001)                 1.190289811401649E-07,      /* K =  3 */
(PID.TID 0000.0001)                 2.426366039156850E-07,      /* K =  4 */
(PID.TID 0000.0001)                 2.474324615834809E-07,      /* K =  5 */
(PID.TID 0000.0001)                 2.524623173430417E-07,      /* K =  6 */
(PID.TID 0000.0001)                 2.577447796682134E-07,      /* K =  7 */
(PID.TID 0000.0001)                 2.633005433751063E-07,      /* K =  8 */
(PID.TID 0000.0001)                 2.691526957883102E-07,      /* K =  9 */
(PID.TID 0000.0001)                 2.753270791223954E-07,      /* K = 10 */
(PID.TID 0000.0001)                 2.818527216123339E-07,      /* K = 11 */
(PID.TID 0000.0001)                 4.331435298648178E-07,      /* K = 12 */
(PID.TID 0000.0001)                 2.960930262843952E-07,      /* K = 13 */
(PID.TID 0000.0001)                 3.038868665784323E-07,      /* K = 14 */
(PID.TID 0000.0001)                 4.682879838031661E-07,      /* K = 15 */
(PID.TID 0000.0001)                 4.815954336697649E-07,      /* K = 16 */
(PID.TID 0000.0001)                 3.305654981231876E-07,      /* K = 17 */
(PID.TID 0000.0001)                 5.111573783530227E-07,      /* K = 18 */
(PID.TID 0000.0001)                 5.276524105789056E-07,      /* K = 19 */
(PID.TID 0000.0001)                 7.273142875569767E-07,      /* K = 20 */
(PID.TID 0000.0001)                 5.648377945318315E-07,      /* K = 21 */
(PID.TID 0000.0001)                 5.859242148841091E-07,      /* K = 22 */
(PID.TID 0000.0001)                 8.120063175984195E-07,      /* K = 23 */
(PID.TID 0000.0001)                 8.458606605918464E-07,      /* K = 24 */
(PID.TID 0000.0001)                 1.324970966072957E-06,      /* K = 25 */
(PID.TID 0000.0001)                 1.850024800896136E-06,      /* K = 26 */
(PID.TID 0000.0001)                 2.672373373653330E-06,      /* K = 27 */
(PID.TID 0000.0001)                 3.842402451980758E-06,      /* K = 28 */
(PID.TID 0000.0001)                 5.153687255998059E-06,      /* K = 29 */
(PID.TID 0000.0001)                 7.505142287600500E-06,      /* K = 30 */
(PID.TID 0000.0001)                 1.081579275302826E-05,      /* K = 31 */
(PID.TID 0000.0001)                 1.632760204610399E-05,      /* K = 32 */
(PID.TID 0000.0001)                 2.501415296003277E-05,      /* K = 33 */
(PID.TID 0000.0001)                 4.547479513248670E-05,      /* K = 34 */
(PID.TID 0000.0001)                 7.350773985229435E-05,      /* K = 35 */
(PID.TID 0000.0001)                 1.056192722413888E-04,      /* K = 36 */
(PID.TID 0000.0001)                 1.657485803253359E-04,      /* K = 37 */
(PID.TID 0000.0001)                 2.965682329250177E-04,      /* K = 38 */
(PID.TID 0000.0001)                 6.856085589377808E-04,      /* K = 39 */
(PID.TID 0000.0001)                 3.192589456878244E-03       /* K = 40 */
(PID.TID 0000.0001)     ;
(PID.TID 0000.0001) rotateGrid = /* use rotated grid ( True/False ) */
(PID.TID 0000.0001)                   F
(PID.TID 0000.0001)     ;
(PID.TID 0000.0001) phiEuler = /* Euler angle, rotation about original z-coordinate [rad] */
(PID.TID 0000.0001)                 0.000000000000000E+00
(PID.TID 0000.0001)     ;
(PID.TID 0000.0001) thetaEuler = /* Euler angle, rotation about new x-coordinate [rad] */
(PID.TID 0000.0001)                 0.000000000000000E+00
(PID.TID 0000.0001)     ;
(PID.TID 0000.0001) psiEuler = /* Euler angle, rotation about new z-coordinate [rad] */
(PID.TID 0000.0001)                 0.000000000000000E+00
(PID.TID 0000.0001)     ;
(PID.TID 0000.0001) dxF =  /* dxF(:,1,:,1) ( units: m ) */
(PID.TID 0000.0001)                 1.202082051331828E+05,      /* I =  1 */
(PID.TID 0000.0001)                 1.563594089971120E+05,      /* I =  2 */
(PID.TID 0000.0001)                 1.835530058121492E+05,      /* I =  3 */
(PID.TID 0000.0001)      . . .
(PID.TID 0000.0001)                 2.978501920522794E+05,      /* I = 46 */
(PID.TID 0000.0001)                 3.000967749619962E+05,      /* I = 47 */
(PID.TID 0000.0001)                 3.012190981969055E+05,      /* I = 48 */
(PID.TID 0000.0001)                 3.012190981969055E+05,      /* I = 49 */
(PID.TID 0000.0001)                 3.000967749619962E+05,      /* I = 50 */
(PID.TID 0000.0001)                 2.978501920522794E+05,      /* I = 51 */
(PID.TID 0000.0001)      . . .
(PID.TID 0000.0001)                 1.835530058121492E+05,      /* I = 94 */
(PID.TID 0000.0001)                 1.563594089971120E+05,      /* I = 95 */
(PID.TID 0000.0001)                 1.202082051331828E+05,      /* I = 96 */
(PID.TID 0000.0001)                 1.202082051331828E+05,      /* I = 97 */
(PID.TID 0000.0001)                 1.563594089971120E+05,      /* I = 98 */
(PID.TID 0000.0001)                 1.835530058121492E+05,      /* I = 99 */
(PID.TID 0000.0001)      . . .
(PID.TID 0000.0001)                 2.978501920522794E+05,      /* I =142 */
(PID.TID 0000.0001)                 3.000967749619962E+05,      /* I =143 */
(PID.TID 0000.0001)                 3.012190981969055E+05,      /* I =144 */
(PID.TID 0000.0001)                 3.012190981969055E+05,      /* I =145 */
(PID.TID 0000.0001)                 3.000967749619962E+05,      /* I =146 */
(PID.TID 0000.0001)                 2.978501920522794E+05,      /* I =147 */
(PID.TID 0000.0001)      . . .
(PID.TID 0000.0001)                 1.835530058121492E+05,      /* I =190 */
(PID.TID 0000.0001)                 1.563594089971120E+05,      /* I =191 */
(PID.TID 0000.0001)                 1.202082051331828E+05       /* I =192 */
(PID.TID 0000.0001)     ;
(PID.TID 0000.0001) dxF =  /* dxF(1,:,1,:) ( units: m ) */
(PID.TID 0000.0001)                 1.202082051331828E+05,      /* J =  1 */
(PID.TID 0000.0001)                 1.572908084538706E+05,      /* J =  2 */
(PID.TID 0000.0001)                 1.840412227747703E+05,      /* J =  3 */
(PID.TID 0000.0001)                 2.048868197919576E+05,      /* J =  4 */
(PID.TID 0000.0001)                 2.220405216043041E+05,      /* J =  5 */
(PID.TID 0000.0001)                 2.365892017348392E+05,      /* J =  6 */
(PID.TID 0000.0001)                 2.491250781852558E+05,      /* J =  7 */
(PID.TID 0000.0001)                 2.599949918261881E+05,      /* J =  8 */
(PID.TID 0000.0001)                 2.694110134598581E+05,      /* J =  9 */
(PID.TID 0000.0001)                 2.775055554645015E+05,      /* J = 10 */
(PID.TID 0000.0001)                 2.843615645344775E+05,      /* J = 11 */
(PID.TID 0000.0001)                 2.900303768613599E+05,      /* J = 12 */
(PID.TID 0000.0001)                 2.945429307892709E+05,      /* J = 13 */
(PID.TID 0000.0001)                 2.979171143158405E+05,      /* J = 14 */
(PID.TID 0000.0001)                 3.001626787528886E+05,      /* J = 15 */
(PID.TID 0000.0001)     2 @  3.012844832048790E+05,             /* J = 16: 17 */
(PID.TID 0000.0001)                 3.001626787528886E+05,      /* J = 18 */
(PID.TID 0000.0001)                 2.979171143158405E+05,      /* J = 19 */
(PID.TID 0000.0001)                 2.945429307892709E+05,      /* J = 20 */
(PID.TID 0000.0001)                 2.900303768613599E+05,      /* J = 21 */
(PID.TID 0000.0001)                 2.843615645344775E+05,      /* J = 22 */
(PID.TID 0000.0001)                 2.775055554645015E+05,      /* J = 23 */
(PID.TID 0000.0001)                 2.694110134598581E+05,      /* J = 24 */
(PID.TID 0000.0001)                 2.599949918261881E+05,      /* J = 25 */
(PID.TID 0000.0001)                 2.491250781852558E+05,      /* J = 26 */
(PID.TID 0000.0001)                 2.365892017348392E+05,      /* J = 27 */
(PID.TID 0000.0001)                 2.220405216043041E+05,      /* J = 28 */
(PID.TID 0000.0001)                 2.048868197919576E+05,      /* J = 29 */
(PID.TID 0000.0001)                 1.840412227747703E+05,      /* J = 30 */
(PID.TID 0000.0001)                 1.572908084538706E+05,      /* J = 31 */
(PID.TID 0000.0001)                 1.202082051331828E+05       /* J = 32 */
(PID.TID 0000.0001)     ;
(PID.TID 0000.0001) dyF =  /* dyF(:,1,:,1) ( units: m ) */
(PID.TID 0000.0001)                 1.202082051331828E+05,      /* I =  1 */
(PID.TID 0000.0001)                 1.572908084538706E+05,      /* I =  2 */
(PID.TID 0000.0001)                 1.840412227747703E+05,      /* I =  3 */
(PID.TID 0000.0001)      . . .
(PID.TID 0000.0001)                 2.979171143158405E+05,      /* I = 46 */
(PID.TID 0000.0001)                 3.001626787528886E+05,      /* I = 47 */
(PID.TID 0000.0001)                 3.012844832048790E+05,      /* I = 48 */
(PID.TID 0000.0001)                 3.012844832048790E+05,      /* I = 49 */
(PID.TID 0000.0001)                 3.001626787528886E+05,      /* I = 50 */
(PID.TID 0000.0001)                 2.979171143158405E+05,      /* I = 51 */
(PID.TID 0000.0001)      . . .
(PID.TID 0000.0001)                 1.840412227747703E+05,      /* I = 94 */
(PID.TID 0000.0001)                 1.572908084538706E+05,      /* I = 95 */
(PID.TID 0000.0001)                 1.202082051331828E+05,      /* I = 96 */
(PID.TID 0000.0001)                 1.202082051331828E+05,      /* I = 97 */
(PID.TID 0000.0001)                 1.572908084538706E+05,      /* I = 98 */
(PID.TID 0000.0001)                 1.840412227747703E+05,      /* I = 99 */
(PID.TID 0000.0001)      . . .
(PID.TID 0000.0001)                 2.979171143158405E+05,      /* I =142 */
(PID.TID 0000.0001)                 3.001626787528886E+05,      /* I =143 */
(PID.TID 0000.0001)                 3.012844832048790E+05,      /* I =144 */
(PID.TID 0000.0001)                 3.012844832048790E+05,      /* I =145 */
(PID.TID 0000.0001)                 3.001626787528886E+05,      /* I =146 */
(PID.TID 0000.0001)                 2.979171143158405E+05,      /* I =147 */
(PID.TID 0000.0001)      . . .
(PID.TID 0000.0001)                 1.840412227747703E+05,      /* I =190 */
(PID.TID 0000.0001)                 1.572908084538706E+05,      /* I =191 */
(PID.TID 0000.0001)                 1.202082051331828E+05       /* I =192 */
(PID.TID 0000.0001)     ;
(PID.TID 0000.0001) dyF =  /* dyF(1,:,1,:) ( units: m ) */
(PID.TID 0000.0001)                 1.202082051331828E+05,      /* J =  1 */
(PID.TID 0000.0001)                 1.563594089971120E+05,      /* J =  2 */
(PID.TID 0000.0001)                 1.835530058121492E+05,      /* J =  3 */
(PID.TID 0000.0001)                 2.045883481718707E+05,      /* J =  4 */
(PID.TID 0000.0001)                 2.218350349844185E+05,      /* J =  5 */
(PID.TID 0000.0001)                 2.364352994647058E+05,      /* J =  6 */
(PID.TID 0000.0001)                 2.490022710862746E+05,      /* J =  7 */
(PID.TID 0000.0001)                 2.598919724358304E+05,      /* J =  8 */
(PID.TID 0000.0001)                 2.693210245495156E+05,      /* J =  9 */
(PID.TID 0000.0001)                 2.774243179696503E+05,      /* J = 10 */
(PID.TID 0000.0001)                 2.842862532064524E+05,      /* J = 11 */
(PID.TID 0000.0001)                 2.899590699694043E+05,      /* J = 12 */
(PID.TID 0000.0001)                 2.944742915095688E+05,      /* J = 13 */
(PID.TID 0000.0001)                 2.978501920522794E+05,      /* J = 14 */
(PID.TID 0000.0001)                 3.000967749619962E+05,      /* J = 15 */
(PID.TID 0000.0001)     2 @  3.012190981969055E+05,             /* J = 16: 17 */
(PID.TID 0000.0001)                 3.000967749619962E+05,      /* J = 18 */
(PID.TID 0000.0001)                 2.978501920522794E+05,      /* J = 19 */
(PID.TID 0000.0001)                 2.944742915095688E+05,      /* J = 20 */
(PID.TID 0000.0001)                 2.899590699694043E+05,      /* J = 21 */
(PID.TID 0000.0001)                 2.842862532064524E+05,      /* J = 22 */
(PID.TID 0000.0001)                 2.774243179696503E+05,      /* J = 23 */
(PID.TID 0000.0001)                 2.693210245495156E+05,      /* J = 24 */
(PID.TID 0000.0001)                 2.598919724358304E+05,      /* J = 25 */
(PID.TID 0000.0001)                 2.490022710862746E+05,      /* J = 26 */
(PID.TID 0000.0001)                 2.364352994647058E+05,      /* J = 27 */
(PID.TID 0000.0001)                 2.218350349844185E+05,      /* J = 28 */
(PID.TID 0000.0001)                 2.045883481718707E+05,      /* J = 29 */
(PID.TID 0000.0001)                 1.835530058121492E+05,      /* J = 30 */
(PID.TID 0000.0001)                 1.563594089971120E+05,      /* J = 31 */
(PID.TID 0000.0001)                 1.202082051331828E+05       /* J = 32 */
(PID.TID 0000.0001)     ;
(PID.TID 0000.0001) dxG =  /* dxG(:,1,:,1) ( units: m ) */
(PID.TID 0000.0001)                 1.009837800879055E+05,      /* I =  1 */
(PID.TID 0000.0001)                 1.534505834330338E+05,      /* I =  2 */
(PID.TID 0000.0001)                 1.823321598773926E+05,      /* I =  3 */
(PID.TID 0000.0001)      . . .
(PID.TID 0000.0001)                 2.977867909042096E+05,      /* I = 46 */
(PID.TID 0000.0001)                 3.000380090330854E+05,      /* I = 47 */
(PID.TID 0000.0001)                 3.011625828699101E+05,      /* I = 48 */
(PID.TID 0000.0001)                 3.011625828699101E+05,      /* I = 49 */
(PID.TID 0000.0001)                 3.000380090330854E+05,      /* I = 50 */
(PID.TID 0000.0001)                 2.977867909042096E+05,      /* I = 51 */
(PID.TID 0000.0001)      . . .
(PID.TID 0000.0001)                 1.823321598773926E+05,      /* I = 94 */
(PID.TID 0000.0001)                 1.534505834330338E+05,      /* I = 95 */
(PID.TID 0000.0001)                 1.009837800879055E+05,      /* I = 96 */
(PID.TID 0000.0001)                 1.009837800879055E+05,      /* I = 97 */
(PID.TID 0000.0001)                 1.534505834330338E+05,      /* I = 98 */
(PID.TID 0000.0001)                 1.823321598773926E+05,      /* I = 99 */
(PID.TID 0000.0001)      . . .
(PID.TID 0000.0001)                 2.977867909042096E+05,      /* I =142 */
(PID.TID 0000.0001)                 3.000380090330854E+05,      /* I =143 */
(PID.TID 0000.0001)                 3.011625828699101E+05,      /* I =144 */
(PID.TID 0000.0001)                 3.011625828699101E+05,      /* I =145 */
(PID.TID 0000.0001)                 3.000380090330854E+05,      /* I =146 */
(PID.TID 0000.0001)                 2.977867909042096E+05,      /* I =147 */
(PID.TID 0000.0001)      . . .
(PID.TID 0000.0001)                 1.823321598773926E+05,      /* I =190 */
(PID.TID 0000.0001)                 1.534505834330338E+05,      /* I =191 */
(PID.TID 0000.0001)                 1.009837800879055E+05       /* I =192 */
(PID.TID 0000.0001)     ;
(PID.TID 0000.0001) dxG =  /* dxG(1,:,1,:) ( units: m ) */
(PID.TID 0000.0001)                 1.009837800879055E+05,      /* J =  1 */
(PID.TID 0000.0001)                 1.403701524205398E+05,      /* J =  2 */
(PID.TID 0000.0001)                 1.716197227386011E+05,      /* J =  3 */
(PID.TID 0000.0001)                 1.950254041626018E+05,      /* J =  4 */
(PID.TID 0000.0001)                 2.138410773065497E+05,      /* J =  5 */
(PID.TID 0000.0001)                 2.295958105911512E+05,      /* J =  6 */
(PID.TID 0000.0001)                 2.430829951739083E+05,      /* J =  7 */
(PID.TID 0000.0001)                 2.547526806712889E+05,      /* J =  8 */
(PID.TID 0000.0001)                 2.648750305193301E+05,      /* J =  9 */
(PID.TID 0000.0001)                 2.736173771018112E+05,      /* J = 10 */
(PID.TID 0000.0001)                 2.810845823202647E+05,      /* J = 11 */
(PID.TID 0000.0001)                 2.873420591008078E+05,      /* J = 12 */
(PID.TID 0000.0001)                 2.924298293668651E+05,      /* J = 13 */
(PID.TID 0000.0001)                 2.963715635865306E+05,      /* J = 14 */
(PID.TID 0000.0001)                 2.991805843171258E+05,      /* J = 15 */
(PID.TID 0000.0001)                 3.008638765647886E+05,      /* J = 16 */
(PID.TID 0000.0001)                 3.014246674484008E+05,      /* J = 17 */
(PID.TID 0000.0001)                 3.008638765647886E+05,      /* J = 18 */
(PID.TID 0000.0001)                 2.991805843171258E+05,      /* J = 19 */
(PID.TID 0000.0001)                 2.963715635865306E+05,      /* J = 20 */
(PID.TID 0000.0001)                 2.924298293668651E+05,      /* J = 21 */
(PID.TID 0000.0001)                 2.873420591008078E+05,      /* J = 22 */
(PID.TID 0000.0001)                 2.810845823202647E+05,      /* J = 23 */
(PID.TID 0000.0001)                 2.736173771018112E+05,      /* J = 24 */
(PID.TID 0000.0001)                 2.648750305193301E+05,      /* J = 25 */
(PID.TID 0000.0001)                 2.547526806712889E+05,      /* J = 26 */
(PID.TID 0000.0001)                 2.430829951739083E+05,      /* J = 27 */
(PID.TID 0000.0001)                 2.295958105911512E+05,      /* J = 28 */
(PID.TID 0000.0001)                 2.138410773065497E+05,      /* J = 29 */
(PID.TID 0000.0001)                 1.950254041626018E+05,      /* J = 30 */
(PID.TID 0000.0001)                 1.716197227386011E+05,      /* J = 31 */
(PID.TID 0000.0001)                 1.403701524205398E+05       /* J = 32 */
(PID.TID 0000.0001)     ;
(PID.TID 0000.0001) dyG =  /* dyG(:,1,:,1) ( units: m ) */
(PID.TID 0000.0001)                 1.009837800879055E+05,      /* I =  1 */
(PID.TID 0000.0001)                 1.403701524205398E+05,      /* I =  2 */
(PID.TID 0000.0001)                 1.716197227386011E+05,      /* I =  3 */
(PID.TID 0000.0001)      . . .
(PID.TID 0000.0001)                 2.963715635865306E+05,      /* I = 46 */
(PID.TID 0000.0001)                 2.991805843171258E+05,      /* I = 47 */
(PID.TID 0000.0001)                 3.008638765647886E+05,      /* I = 48 */
(PID.TID 0000.0001)                 3.014246674484008E+05,      /* I = 49 */
(PID.TID 0000.0001)                 3.008638765647886E+05,      /* I = 50 */
(PID.TID 0000.0001)                 2.991805843171258E+05,      /* I = 51 */
(PID.TID 0000.0001)      . . .
(PID.TID 0000.0001)                 1.950254041626018E+05,      /* I = 94 */
(PID.TID 0000.0001)                 1.716197227386011E+05,      /* I = 95 */
(PID.TID 0000.0001)                 1.403701524205398E+05,      /* I = 96 */
(PID.TID 0000.0001)                 1.009837800879055E+05,      /* I = 97 */
(PID.TID 0000.0001)                 1.403701524205398E+05,      /* I = 98 */
(PID.TID 0000.0001)                 1.716197227386011E+05,      /* I = 99 */
(PID.TID 0000.0001)      . . .
(PID.TID 0000.0001)                 2.963715635865306E+05,      /* I =142 */
(PID.TID 0000.0001)                 2.991805843171258E+05,      /* I =143 */
(PID.TID 0000.0001)                 3.008638765647886E+05,      /* I =144 */
(PID.TID 0000.0001)                 3.014246674484008E+05,      /* I =145 */
(PID.TID 0000.0001)                 3.008638765647886E+05,      /* I =146 */
(PID.TID 0000.0001)                 2.991805843171258E+05,      /* I =147 */
(PID.TID 0000.0001)      . . .
(PID.TID 0000.0001)                 1.950254041626018E+05,      /* I =190 */
(PID.TID 0000.0001)                 1.716197227386011E+05,      /* I =191 */
(PID.TID 0000.0001)                 1.403701524205398E+05       /* I =192 */
(PID.TID 0000.0001)     ;
(PID.TID 0000.0001) dyG =  /* dyG(1,:,1,:) ( units: m ) */
(PID.TID 0000.0001)                 1.009837800879055E+05,      /* J =  1 */
(PID.TID 0000.0001)                 1.534505834330338E+05,      /* J =  2 */
(PID.TID 0000.0001)                 1.823321598773926E+05,      /* J =  3 */
(PID.TID 0000.0001)                 2.038999045536999E+05,      /* J =  4 */
(PID.TID 0000.0001)                 2.213884732245467E+05,      /* J =  5 */
(PID.TID 0000.0001)                 2.361211699596122E+05,      /* J =  6 */
(PID.TID 0000.0001)                 2.487693460283865E+05,      /* J =  7 */
(PID.TID 0000.0001)                 2.597126963772147E+05,      /* J =  8 */
(PID.TID 0000.0001)                 2.691790288994575E+05,      /* J =  9 */
(PID.TID 0000.0001)                 2.773091043277394E+05,      /* J = 10 */
(PID.TID 0000.0001)                 2.841906470085516E+05,      /* J = 11 */
(PID.TID 0000.0001)                 2.898778860929753E+05,      /* J = 12 */
(PID.TID 0000.0001)                 2.944035815526416E+05,      /* J = 13 */
(PID.TID 0000.0001)                 2.977867909042096E+05,      /* J = 14 */
(PID.TID 0000.0001)                 3.000380090330854E+05,      /* J = 15 */
(PID.TID 0000.0001)     2 @  3.011625828699101E+05,             /* J = 16: 17 */
(PID.TID 0000.0001)                 3.000380090330854E+05,      /* J = 18 */
(PID.TID 0000.0001)                 2.977867909042096E+05,      /* J = 19 */
(PID.TID 0000.0001)                 2.944035815526416E+05,      /* J = 20 */
(PID.TID 0000.0001)                 2.898778860929753E+05,      /* J = 21 */
(PID.TID 0000.0001)                 2.841906470085516E+05,      /* J = 22 */
(PID.TID 0000.0001)                 2.773091043277394E+05,      /* J = 23 */
(PID.TID 0000.0001)                 2.691790288994575E+05,      /* J = 24 */
(PID.TID 0000.0001)                 2.597126963772147E+05,      /* J = 25 */
(PID.TID 0000.0001)                 2.487693460283865E+05,      /* J = 26 */
(PID.TID 0000.0001)                 2.361211699596122E+05,      /* J = 27 */
(PID.TID 0000.0001)                 2.213884732245467E+05,      /* J = 28 */
(PID.TID 0000.0001)                 2.038999045536999E+05,      /* J = 29 */
(PID.TID 0000.0001)                 1.823321598773926E+05,      /* J = 30 */
(PID.TID 0000.0001)                 1.534505834330338E+05,      /* J = 31 */
(PID.TID 0000.0001)                 1.009837800879055E+05       /* J = 32 */
(PID.TID 0000.0001)     ;
(PID.TID 0000.0001) dxC =  /* dxC(:,1,:,1) ( units: m ) */
(PID.TID 0000.0001)                 1.135373000692312E+05,      /* I =  1 */
(PID.TID 0000.0001)                 1.391343389937106E+05,      /* I =  2 */
(PID.TID 0000.0001)                 1.709574999026266E+05,      /* I =  3 */
(PID.TID 0000.0001)      . . .
(PID.TID 0000.0001)                 2.963038832565530E+05,      /* I = 46 */
(PID.TID 0000.0001)                 2.991142470004740E+05,      /* I = 47 */
(PID.TID 0000.0001)                 3.007982711627968E+05,      /* I = 48 */
(PID.TID 0000.0001)                 3.013593857228136E+05,      /* I = 49 */
(PID.TID 0000.0001)                 3.007982711627968E+05,      /* I = 50 */
(PID.TID 0000.0001)                 2.991142470004740E+05,      /* I = 51 */
(PID.TID 0000.0001)      . . .
(PID.TID 0000.0001)                 1.946503699269892E+05,      /* I = 94 */
(PID.TID 0000.0001)                 1.709574999026266E+05,      /* I = 95 */
(PID.TID 0000.0001)                 1.391343389937106E+05,      /* I = 96 */
(PID.TID 0000.0001)                 1.135373000692312E+05,      /* I = 97 */
(PID.TID 0000.0001)                 1.391343389937106E+05,      /* I = 98 */
(PID.TID 0000.0001)                 1.709574999026266E+05,      /* I = 99 */
(PID.TID 0000.0001)      . . .
(PID.TID 0000.0001)                 2.963038832565530E+05,      /* I =142 */
(PID.TID 0000.0001)                 2.991142470004740E+05,      /* I =143 */
(PID.TID 0000.0001)                 3.007982711627968E+05,      /* I =144 */
(PID.TID 0000.0001)                 3.013593857228136E+05,      /* I =145 */
(PID.TID 0000.0001)                 3.007982711627968E+05,      /* I =146 */
(PID.TID 0000.0001)                 2.991142470004740E+05,      /* I =147 */
(PID.TID 0000.0001)      . . .
(PID.TID 0000.0001)                 1.946503699269892E+05,      /* I =190 */
(PID.TID 0000.0001)                 1.709574999026266E+05,      /* I =191 */
(PID.TID 0000.0001)                 1.391343389937106E+05       /* I =192 */
(PID.TID 0000.0001)     ;
(PID.TID 0000.0001) dxC =  /* dxC(1,:,1,:) ( units: m ) */
(PID.TID 0000.0001)                 1.135373000692312E+05,      /* J =  1 */
(PID.TID 0000.0001)                 1.549545757850771E+05,      /* J =  2 */
(PID.TID 0000.0001)                 1.829777599966776E+05,      /* J =  3 */
(PID.TID 0000.0001)                 2.042717761866506E+05,      /* J =  4 */
(PID.TID 0000.0001)                 2.216367828252819E+05,      /* J =  5 */
(PID.TID 0000.0001)                 2.363029564123586E+05,      /* J =  6 */
(PID.TID 0000.0001)                 2.489113743322025E+05,      /* J =  7 */
(PID.TID 0000.0001)                 2.598293319150326E+05,      /* J =  8 */
(PID.TID 0000.0001)                 2.692787333338535E+05,      /* J =  9 */
(PID.TID 0000.0001)                 2.773972106720365E+05,      /* J = 10 */
(PID.TID 0000.0001)                 2.842706922224557E+05,      /* J = 11 */
(PID.TID 0000.0001)                 2.899523122489403E+05,      /* J = 12 */
(PID.TID 0000.0001)                 2.944741346384699E+05,      /* J = 13 */
(PID.TID 0000.0001)                 2.978547649292580E+05,      /* J = 14 */
(PID.TID 0000.0001)                 3.001044073506459E+05,      /* J = 15 */
(PID.TID 0000.0001)     2 @  3.012281885409289E+05,             /* J = 16: 17 */
(PID.TID 0000.0001)                 3.001044073506459E+05,      /* J = 18 */
(PID.TID 0000.0001)                 2.978547649292580E+05,      /* J = 19 */
(PID.TID 0000.0001)                 2.944741346384699E+05,      /* J = 20 */
(PID.TID 0000.0001)                 2.899523122489403E+05,      /* J = 21 */
(PID.TID 0000.0001)                 2.842706922224557E+05,      /* J = 22 */
(PID.TID 0000.0001)                 2.773972106720365E+05,      /* J = 23 */
(PID.TID 0000.0001)                 2.692787333338535E+05,      /* J = 24 */
(PID.TID 0000.0001)                 2.598293319150326E+05,      /* J = 25 */
(PID.TID 0000.0001)                 2.489113743322025E+05,      /* J = 26 */
(PID.TID 0000.0001)                 2.363029564123586E+05,      /* J = 27 */
(PID.TID 0000.0001)                 2.216367828252819E+05,      /* J = 28 */
(PID.TID 0000.0001)                 2.042717761866506E+05,      /* J = 29 */
(PID.TID 0000.0001)                 1.829777599966776E+05,      /* J = 30 */
(PID.TID 0000.0001)                 1.549545757850771E+05,      /* J = 31 */
(PID.TID 0000.0001)                 1.135373000692312E+05       /* J = 32 */
(PID.TID 0000.0001)     ;
(PID.TID 0000.0001) dyC =  /* dyC(:,1,:,1) ( units: m ) */
(PID.TID 0000.0001)                 1.135373000692312E+05,      /* I =  1 */
(PID.TID 0000.0001)                 1.549545757850771E+05,      /* I =  2 */
(PID.TID 0000.0001)                 1.829777599966776E+05,      /* I =  3 */
(PID.TID 0000.0001)      . . .
(PID.TID 0000.0001)                 2.978547649292580E+05,      /* I = 46 */
(PID.TID 0000.0001)                 3.001044073506459E+05,      /* I = 47 */
(PID.TID 0000.0001)                 3.012281885409289E+05,      /* I = 48 */
(PID.TID 0000.0001)                 3.012281885409289E+05,      /* I = 49 */
(PID.TID 0000.0001)                 3.001044073506459E+05,      /* I = 50 */
(PID.TID 0000.0001)                 2.978547649292580E+05,      /* I = 51 */
(PID.TID 0000.0001)      . . .
(PID.TID 0000.0001)                 1.829777599966776E+05,      /* I = 94 */
(PID.TID 0000.0001)                 1.549545757850771E+05,      /* I = 95 */
(PID.TID 0000.0001)                 1.135373000692312E+05,      /* I = 96 */
(PID.TID 0000.0001)                 1.135373000692312E+05,      /* I = 97 */
(PID.TID 0000.0001)                 1.549545757850771E+05,      /* I = 98 */
(PID.TID 0000.0001)                 1.829777599966776E+05,      /* I = 99 */
(PID.TID 0000.0001)      . . .
(PID.TID 0000.0001)                 2.978547649292580E+05,      /* I =142 */
(PID.TID 0000.0001)                 3.001044073506459E+05,      /* I =143 */
(PID.TID 0000.0001)                 3.012281885409289E+05,      /* I =144 */
(PID.TID 0000.0001)                 3.012281885409289E+05,      /* I =145 */
(PID.TID 0000.0001)                 3.001044073506459E+05,      /* I =146 */
(PID.TID 0000.0001)                 2.978547649292580E+05,      /* I =147 */
(PID.TID 0000.0001)      . . .
(PID.TID 0000.0001)                 1.829777599966776E+05,      /* I =190 */
(PID.TID 0000.0001)                 1.549545757850771E+05,      /* I =191 */
(PID.TID 0000.0001)                 1.135373000692312E+05       /* I =192 */
(PID.TID 0000.0001)     ;
(PID.TID 0000.0001) dyC =  /* dyC(1,:,1,:) ( units: m ) */
(PID.TID 0000.0001)                 1.135373000692312E+05,      /* J =  1 */
(PID.TID 0000.0001)                 1.391343389937106E+05,      /* J =  2 */
(PID.TID 0000.0001)                 1.709574999026266E+05,      /* J =  3 */
(PID.TID 0000.0001)                 1.946503699269892E+05,      /* J =  4 */
(PID.TID 0000.0001)                 2.135964483342134E+05,      /* J =  5 */
(PID.TID 0000.0001)                 2.294195678257306E+05,      /* J =  6 */
(PID.TID 0000.0001)                 2.429464709770498E+05,      /* J =  7 */
(PID.TID 0000.0001)                 2.546408290696998E+05,      /* J =  8 */
(PID.TID 0000.0001)                 2.647791839299727E+05,      /* J =  9 */
(PID.TID 0000.0001)                 2.735321911346108E+05,      /* J = 10 */
(PID.TID 0000.0001)                 2.810065951609633E+05,      /* J = 11 */
(PID.TID 0000.0001)                 2.872689479506990E+05,      /* J = 12 */
(PID.TID 0000.0001)                 2.923599955312932E+05,      /* J = 13 */
(PID.TID 0000.0001)                 2.963038832565530E+05,      /* J = 14 */
(PID.TID 0000.0001)                 2.991142470004740E+05,      /* J = 15 */
(PID.TID 0000.0001)                 3.007982711627968E+05,      /* J = 16 */
(PID.TID 0000.0001)                 3.013593857228136E+05,      /* J = 17 */
(PID.TID 0000.0001)                 3.007982711627968E+05,      /* J = 18 */
(PID.TID 0000.0001)                 2.991142470004740E+05,      /* J = 19 */
(PID.TID 0000.0001)                 2.963038832565530E+05,      /* J = 20 */
(PID.TID 0000.0001)                 2.923599955312932E+05,      /* J = 21 */
(PID.TID 0000.0001)                 2.872689479506990E+05,      /* J = 22 */
(PID.TID 0000.0001)                 2.810065951609633E+05,      /* J = 23 */
(PID.TID 0000.0001)                 2.735321911346108E+05,      /* J = 24 */
(PID.TID 0000.0001)                 2.647791839299727E+05,      /* J = 25 */
(PID.TID 0000.0001)                 2.546408290696998E+05,      /* J = 26 */
(PID.TID 0000.0001)                 2.429464709770498E+05,      /* J = 27 */
(PID.TID 0000.0001)                 2.294195678257306E+05,      /* J = 28 */
(PID.TID 0000.0001)                 2.135964483342134E+05,      /* J = 29 */
(PID.TID 0000.0001)                 1.946503699269892E+05,      /* J = 30 */
(PID.TID 0000.0001)                 1.709574999026266E+05,      /* J = 31 */
(PID.TID 0000.0001)                 1.391343389937106E+05       /* J = 32 */
(PID.TID 0000.0001)     ;
(PID.TID 0000.0001) dxV =  /* dxV(:,1,:,1) ( units: m ) */
(PID.TID 0000.0001)                 8.015229982413632E+04,      /* I =  1 */
(PID.TID 0000.0001)                 1.333130744933864E+05,      /* I =  2 */
(PID.TID 0000.0001)                 1.691744868129062E+05,      /* I =  3 */
(PID.TID 0000.0001)      . . .
(PID.TID 0000.0001)                 2.962371870847826E+05,      /* I = 46 */
(PID.TID 0000.0001)                 2.990534755671296E+05,      /* I = 47 */
(PID.TID 0000.0001)                 3.007409169495504E+05,      /* I = 48 */
(PID.TID 0000.0001)                 3.013031486919771E+05,      /* I = 49 */
(PID.TID 0000.0001)                 3.007409169495504E+05,      /* I = 50 */
(PID.TID 0000.0001)                 2.990534755671296E+05,      /* I = 51 */
(PID.TID 0000.0001)      . . .
(PID.TID 0000.0001)                 1.937548202849060E+05,      /* I = 94 */
(PID.TID 0000.0001)                 1.691744868129062E+05,      /* I = 95 */
(PID.TID 0000.0001)                 1.333130744933864E+05,      /* I = 96 */
(PID.TID 0000.0001)                 8.015229982413632E+04,      /* I = 97 */
(PID.TID 0000.0001)                 1.333130744933864E+05,      /* I = 98 */
(PID.TID 0000.0001)                 1.691744868129062E+05,      /* I = 99 */
(PID.TID 0000.0001)      . . .
(PID.TID 0000.0001)                 2.962371870847826E+05,      /* I =142 */
(PID.TID 0000.0001)                 2.990534755671296E+05,      /* I =143 */
(PID.TID 0000.0001)                 3.007409169495504E+05,      /* I =144 */
(PID.TID 0000.0001)                 3.013031486919771E+05,      /* I =145 */
(PID.TID 0000.0001)                 3.007409169495504E+05,      /* I =146 */
(PID.TID 0000.0001)                 2.990534755671296E+05,      /* I =147 */
(PID.TID 0000.0001)      . . .
(PID.TID 0000.0001)                 1.937548202849060E+05,      /* I =190 */
(PID.TID 0000.0001)                 1.691744868129062E+05,      /* I =191 */
(PID.TID 0000.0001)                 1.333130744933864E+05       /* I =192 */
(PID.TID 0000.0001)     ;
(PID.TID 0000.0001) dxV =  /* dxV(1,:,1,:) ( units: m ) */
(PID.TID 0000.0001)                 8.015229982413632E+04,      /* J =  1 */
(PID.TID 0000.0001)                 1.362652340208229E+05,      /* J =  2 */
(PID.TID 0000.0001)                 1.701080315742101E+05,      /* J =  3 */
(PID.TID 0000.0001)                 1.942331448101592E+05,      /* J =  4 */
(PID.TID 0000.0001)                 2.133486626971531E+05,      /* J =  5 */
(PID.TID 0000.0001)                 2.292584591272880E+05,      /* J =  6 */
(PID.TID 0000.0001)                 2.428369969078989E+05,      /* J =  7 */
(PID.TID 0000.0001)                 2.545652950875683E+05,      /* J =  8 */
(PID.TID 0000.0001)                 2.647274964828301E+05,      /* J =  9 */
(PID.TID 0000.0001)                 2.734980225206389E+05,      /* J = 10 */
(PID.TID 0000.0001)                 2.809856491525217E+05,      /* J = 11 */
(PID.TID 0000.0001)                 2.872580915202295E+05,      /* J = 12 */
(PID.TID 0000.0001)                 2.923567890694162E+05,      /* J = 13 */
(PID.TID 0000.0001)                 2.963063101754721E+05,      /* J = 14 */
(PID.TID 0000.0001)                 2.991205495886625E+05,      /* J = 15 */
(PID.TID 0000.0001)                 3.008068453676764E+05,      /* J = 16 */
(PID.TID 0000.0001)                 3.013686170436881E+05,      /* J = 17 */
(PID.TID 0000.0001)                 3.008068453676764E+05,      /* J = 18 */
(PID.TID 0000.0001)                 2.991205495886625E+05,      /* J = 19 */
(PID.TID 0000.0001)                 2.963063101754721E+05,      /* J = 20 */
(PID.TID 0000.0001)                 2.923567890694162E+05,      /* J = 21 */
(PID.TID 0000.0001)                 2.872580915202295E+05,      /* J = 22 */
(PID.TID 0000.0001)                 2.809856491525217E+05,      /* J = 23 */
(PID.TID 0000.0001)                 2.734980225206389E+05,      /* J = 24 */
(PID.TID 0000.0001)                 2.647274964828301E+05,      /* J = 25 */
(PID.TID 0000.0001)                 2.545652950875683E+05,      /* J = 26 */
(PID.TID 0000.0001)                 2.428369969078989E+05,      /* J = 27 */
(PID.TID 0000.0001)                 2.292584591272880E+05,      /* J = 28 */
(PID.TID 0000.0001)                 2.133486626971531E+05,      /* J = 29 */
(PID.TID 0000.0001)                 1.942331448101592E+05,      /* J = 30 */
(PID.TID 0000.0001)                 1.701080315742101E+05,      /* J = 31 */
(PID.TID 0000.0001)                 1.362652340208229E+05       /* J = 32 */
(PID.TID 0000.0001)     ;
(PID.TID 0000.0001) dyU =  /* dyU(:,1,:,1) ( units: m ) */
(PID.TID 0000.0001)                 8.015229982413632E+04,      /* I =  1 */
(PID.TID 0000.0001)                 1.362652340208229E+05,      /* I =  2 */
(PID.TID 0000.0001)                 1.701080315742101E+05,      /* I =  3 */
(PID.TID 0000.0001)      . . .
(PID.TID 0000.0001)                 2.963063101754721E+05,      /* I = 46 */
(PID.TID 0000.0001)                 2.991205495886625E+05,      /* I = 47 */
(PID.TID 0000.0001)                 3.008068453676764E+05,      /* I = 48 */
(PID.TID 0000.0001)                 3.013686170436881E+05,      /* I = 49 */
(PID.TID 0000.0001)                 3.008068453676764E+05,      /* I = 50 */
(PID.TID 0000.0001)                 2.991205495886625E+05,      /* I = 51 */
(PID.TID 0000.0001)      . . .
(PID.TID 0000.0001)                 1.942331448101592E+05,      /* I = 94 */
(PID.TID 0000.0001)                 1.701080315742101E+05,      /* I = 95 */
(PID.TID 0000.0001)                 1.362652340208229E+05,      /* I = 96 */
(PID.TID 0000.0001)                 8.015229982413632E+04,      /* I = 97 */
(PID.TID 0000.0001)                 1.362652340208229E+05,      /* I = 98 */
(PID.TID 0000.0001)                 1.701080315742101E+05,      /* I = 99 */
(PID.TID 0000.0001)      . . .
(PID.TID 0000.0001)                 2.963063101754721E+05,      /* I =142 */
(PID.TID 0000.0001)                 2.991205495886625E+05,      /* I =143 */
(PID.TID 0000.0001)                 3.008068453676764E+05,      /* I =144 */
(PID.TID 0000.0001)                 3.013686170436881E+05,      /* I =145 */
(PID.TID 0000.0001)                 3.008068453676764E+05,      /* I =146 */
(PID.TID 0000.0001)                 2.991205495886625E+05,      /* I =147 */
(PID.TID 0000.0001)      . . .
(PID.TID 0000.0001)                 1.942331448101592E+05,      /* I =190 */
(PID.TID 0000.0001)                 1.701080315742101E+05,      /* I =191 */
(PID.TID 0000.0001)                 1.362652340208229E+05       /* I =192 */
(PID.TID 0000.0001)     ;
(PID.TID 0000.0001) dyU =  /* dyU(1,:,1,:) ( units: m ) */
(PID.TID 0000.0001)                 8.015229982413632E+04,      /* J =  1 */
(PID.TID 0000.0001)                 1.333130744933864E+05,      /* J =  2 */
(PID.TID 0000.0001)                 1.691744868129062E+05,      /* J =  3 */
(PID.TID 0000.0001)                 1.937548202849060E+05,      /* J =  4 */
(PID.TID 0000.0001)                 2.130490056267208E+05,      /* J =  5 */
(PID.TID 0000.0001)                 2.290479919481738E+05,      /* J =  6 */
(PID.TID 0000.0001)                 2.426774358027003E+05,      /* J =  7 */
(PID.TID 0000.0001)                 2.544372984215561E+05,      /* J =  8 */
(PID.TID 0000.0001)                 2.646201463834826E+05,      /* J =  9 */
(PID.TID 0000.0001)                 2.734046499619031E+05,      /* J = 10 */
(PID.TID 0000.0001)                 2.809019351693761E+05,      /* J = 11 */
(PID.TID 0000.0001)                 2.871811105274442E+05,      /* J = 12 */
(PID.TID 0000.0001)                 2.922844849381675E+05,      /* J = 13 */
(PID.TID 0000.0001)                 2.962371870847826E+05,      /* J = 14 */
(PID.TID 0000.0001)                 2.990534755671296E+05,      /* J = 15 */
(PID.TID 0000.0001)                 3.007409169495504E+05,      /* J = 16 */
(PID.TID 0000.0001)                 3.013031486919771E+05,      /* J = 17 */
(PID.TID 0000.0001)                 3.007409169495504E+05,      /* J = 18 */
(PID.TID 0000.0001)                 2.990534755671296E+05,      /* J = 19 */
(PID.TID 0000.0001)                 2.962371870847826E+05,      /* J = 20 */
(PID.TID 0000.0001)                 2.922844849381675E+05,      /* J = 21 */
(PID.TID 0000.0001)                 2.871811105274442E+05,      /* J = 22 */
(PID.TID 0000.0001)                 2.809019351693761E+05,      /* J = 23 */
(PID.TID 0000.0001)                 2.734046499619031E+05,      /* J = 24 */
(PID.TID 0000.0001)                 2.646201463834826E+05,      /* J = 25 */
(PID.TID 0000.0001)                 2.544372984215561E+05,      /* J = 26 */
(PID.TID 0000.0001)                 2.426774358027003E+05,      /* J = 27 */
(PID.TID 0000.0001)                 2.290479919481738E+05,      /* J = 28 */
(PID.TID 0000.0001)                 2.130490056267208E+05,      /* J = 29 */
(PID.TID 0000.0001)                 1.937548202849060E+05,      /* J = 30 */
(PID.TID 0000.0001)                 1.691744868129062E+05,      /* J = 31 */
(PID.TID 0000.0001)                 1.333130744933864E+05       /* J = 32 */
(PID.TID 0000.0001)     ;
(PID.TID 0000.0001) rA  =  /* rA (:,1,:,1) ( units: m^2 ) */
(PID.TID 0000.0001)                 1.549786705672200E+10,      /* I =  1 */
(PID.TID 0000.0001)                 2.487202533723944E+10,      /* I =  2 */
(PID.TID 0000.0001)                 3.392265412140352E+10,      /* I =  3 */
(PID.TID 0000.0001)      . . .
(PID.TID 0000.0001)                 8.871245486529788E+10,      /* I = 46 */
(PID.TID 0000.0001)                 9.005359372079962E+10,      /* I = 47 */
(PID.TID 0000.0001)                 9.072735712796770E+10,      /* I = 48 */
(PID.TID 0000.0001)                 9.072735712796770E+10,      /* I = 49 */
(PID.TID 0000.0001)                 9.005359372079962E+10,      /* I = 50 */
(PID.TID 0000.0001)                 8.871245486529788E+10,      /* I = 51 */
(PID.TID 0000.0001)      . . .
(PID.TID 0000.0001)                 3.392265412140352E+10,      /* I = 94 */
(PID.TID 0000.0001)                 2.487202533723944E+10,      /* I = 95 */
(PID.TID 0000.0001)                 1.549786705672200E+10,      /* I = 96 */
(PID.TID 0000.0001)                 1.549786705672200E+10,      /* I = 97 */
(PID.TID 0000.0001)                 2.487202533723944E+10,      /* I = 98 */
(PID.TID 0000.0001)                 3.392265412140352E+10,      /* I = 99 */
(PID.TID 0000.0001)      . . .
(PID.TID 0000.0001)                 8.871245486529788E+10,      /* I =142 */
(PID.TID 0000.0001)                 9.005359372079962E+10,      /* I =143 */
(PID.TID 0000.0001)                 9.072735712796770E+10,      /* I =144 */
(PID.TID 0000.0001)                 9.072735712796770E+10,      /* I =145 */
(PID.TID 0000.0001)                 9.005359372079962E+10,      /* I =146 */
(PID.TID 0000.0001)                 8.871245486529788E+10,      /* I =147 */
(PID.TID 0000.0001)      . . .
(PID.TID 0000.0001)                 3.392265412140352E+10,      /* I =190 */
(PID.TID 0000.0001)                 2.487202533723944E+10,      /* I =191 */
(PID.TID 0000.0001)                 1.549786705672200E+10       /* I =192 */
(PID.TID 0000.0001)     ;
(PID.TID 0000.0001) rA  =  /* rA (1,:,1,:) ( units: m^2 ) */
(PID.TID 0000.0001)                 1.549786705672200E+10,      /* J =  1 */
(PID.TID 0000.0001)                 2.487202533723944E+10,      /* J =  2 */
(PID.TID 0000.0001)                 3.392265412140352E+10,      /* J =  3 */
(PID.TID 0000.0001)                 4.200427377313133E+10,      /* J =  4 */
(PID.TID 0000.0001)                 4.931323764668228E+10,      /* J =  5 */
(PID.TID 0000.0001)                 5.597545074899419E+10,      /* J =  6 */
(PID.TID 0000.0001)                 6.205603937791459E+10,      /* J =  7 */
(PID.TID 0000.0001)                 6.758299971934573E+10,      /* J =  8 */
(PID.TID 0000.0001)                 7.256155653843707E+10,      /* J =  9 */
(PID.TID 0000.0001)                 7.698291833687604E+10,      /* J = 10 */
(PID.TID 0000.0001)                 8.083005486272011E+10,      /* J = 11 */
(PID.TID 0000.0001)                 8.408183191745641E+10,      /* J = 12 */
(PID.TID 0000.0001)                 8.671615787312848E+10,      /* J = 13 */
(PID.TID 0000.0001)                 8.871245486529788E+10,      /* J = 14 */
(PID.TID 0000.0001)                 9.005359372079964E+10,      /* J = 15 */
(PID.TID 0000.0001)     2 @  9.072735712796770E+10,             /* J = 16: 17 */
(PID.TID 0000.0001)                 9.005359372079964E+10,      /* J = 18 */
(PID.TID 0000.0001)                 8.871245486529788E+10,      /* J = 19 */
(PID.TID 0000.0001)                 8.671615787312848E+10,      /* J = 20 */
(PID.TID 0000.0001)                 8.408183191745641E+10,      /* J = 21 */
(PID.TID 0000.0001)                 8.083005486272011E+10,      /* J = 22 */
(PID.TID 0000.0001)                 7.698291833687604E+10,      /* J = 23 */
(PID.TID 0000.0001)                 7.256155653843707E+10,      /* J = 24 */
(PID.TID 0000.0001)                 6.758299971934573E+10,      /* J = 25 */
(PID.TID 0000.0001)                 6.205603937791459E+10,      /* J = 26 */
(PID.TID 0000.0001)                 5.597545074899419E+10,      /* J = 27 */
(PID.TID 0000.0001)                 4.931323764668228E+10,      /* J = 28 */
(PID.TID 0000.0001)                 4.200427377313133E+10,      /* J = 29 */
(PID.TID 0000.0001)                 3.392265412140352E+10,      /* J = 30 */
(PID.TID 0000.0001)                 2.487202533723944E+10,      /* J = 31 */
(PID.TID 0000.0001)                 1.549786705672200E+10       /* J = 32 */
(PID.TID 0000.0001)     ;
(PID.TID 0000.0001) rAw =  /* rAw(:,1,:,1) ( units: m^2 ) */
(PID.TID 0000.0001)                 1.146542574196578E+10,      /* I =  1 */
(PID.TID 0000.0001)                 1.953030837147821E+10,      /* I =  2 */
(PID.TID 0000.0001)                 2.933967873337320E+10,      /* I =  3 */
(PID.TID 0000.0001)      . . .
(PID.TID 0000.0001)                 8.781604517750543E+10,      /* I = 46 */
(PID.TID 0000.0001)                 8.948917519517891E+10,      /* I = 47 */
(PID.TID 0000.0001)                 9.049933392602551E+10,      /* I = 48 */
(PID.TID 0000.0001)                 9.083715262395341E+10,      /* I = 49 */
(PID.TID 0000.0001)                 9.049933392602551E+10,      /* I = 50 */
(PID.TID 0000.0001)                 8.948917519517891E+10,      /* I = 51 */
(PID.TID 0000.0001)      . . .
(PID.TID 0000.0001)                 3.796176706541101E+10,      /* I = 94 */
(PID.TID 0000.0001)                 2.933967873337320E+10,      /* I = 95 */
(PID.TID 0000.0001)                 1.953030837147821E+10,      /* I = 96 */
(PID.TID 0000.0001)                 1.146542574196578E+10,      /* I = 97 */
(PID.TID 0000.0001)                 1.953030837147821E+10,      /* I = 98 */
(PID.TID 0000.0001)                 2.933967873337320E+10,      /* I = 99 */
(PID.TID 0000.0001)      . . .
(PID.TID 0000.0001)                 8.781604517750543E+10,      /* I =142 */
(PID.TID 0000.0001)                 8.948917519517891E+10,      /* I =143 */
(PID.TID 0000.0001)                 9.049933392602551E+10,      /* I =144 */
(PID.TID 0000.0001)                 9.083715262395341E+10,      /* I =145 */
(PID.TID 0000.0001)                 9.049933392602551E+10,      /* I =146 */
(PID.TID 0000.0001)                 8.948917519517891E+10,      /* I =147 */
(PID.TID 0000.0001)      . . .
(PID.TID 0000.0001)                 3.796176706541101E+10,      /* I =190 */
(PID.TID 0000.0001)                 2.933967873337320E+10,      /* I =191 */
(PID.TID 0000.0001)                 1.953030837147821E+10       /* I =192 */
(PID.TID 0000.0001)     ;
(PID.TID 0000.0001) rAw =  /* rAw(1,:,1,:) ( units: m^2 ) */
(PID.TID 0000.0001)                 1.146542574196578E+10,      /* J =  1 */
(PID.TID 0000.0001)                 2.377787005983833E+10,      /* J =  2 */
(PID.TID 0000.0001)                 3.336273018972140E+10,      /* J =  3 */
(PID.TID 0000.0001)                 4.165099566747280E+10,      /* J =  4 */
(PID.TID 0000.0001)                 4.906782896008959E+10,      /* J =  5 */
(PID.TID 0000.0001)                 5.579613053300137E+10,      /* J =  6 */
(PID.TID 0000.0001)                 6.192151981164894E+10,      /* J =  7 */
(PID.TID 0000.0001)                 6.748097638954340E+10,      /* J =  8 */
(PID.TID 0000.0001)                 7.248418794208269E+10,      /* J =  9 */
(PID.TID 0000.0001)                 7.692477203447566E+10,      /* J = 10 */
(PID.TID 0000.0001)                 8.078707194826852E+10,      /* J = 11 */
(PID.TID 0000.0001)                 8.405076334249313E+10,      /* J = 12 */
(PID.TID 0000.0001)                 8.669423991218034E+10,      /* J = 13 */
(PID.TID 0000.0001)                 8.869721460381146E+10,      /* J = 14 */
(PID.TID 0000.0001)                 9.004272888354184E+10,      /* J = 15 */
(PID.TID 0000.0001)     2 @  9.071865929421040E+10,             /* J = 16: 17 */
(PID.TID 0000.0001)                 9.004272888354184E+10,      /* J = 18 */
(PID.TID 0000.0001)                 8.869721460381146E+10,      /* J = 19 */
(PID.TID 0000.0001)                 8.669423991218034E+10,      /* J = 20 */
(PID.TID 0000.0001)                 8.405076334249313E+10,      /* J = 21 */
(PID.TID 0000.0001)                 8.078707194826852E+10,      /* J = 22 */
(PID.TID 0000.0001)                 7.692477203447566E+10,      /* J = 23 */
(PID.TID 0000.0001)                 7.248418794208269E+10,      /* J = 24 */
(PID.TID 0000.0001)                 6.748097638954340E+10,      /* J = 25 */
(PID.TID 0000.0001)                 6.192151981164894E+10,      /* J = 26 */
(PID.TID 0000.0001)                 5.579613053300137E+10,      /* J = 27 */
(PID.TID 0000.0001)                 4.906782896008959E+10,      /* J = 28 */
(PID.TID 0000.0001)                 4.165099566747280E+10,      /* J = 29 */
(PID.TID 0000.0001)                 3.336273018972140E+10,      /* J = 30 */
(PID.TID 0000.0001)                 2.377787005983833E+10,      /* J = 31 */
(PID.TID 0000.0001)                 1.146542574196578E+10       /* J = 32 */
(PID.TID 0000.0001)     ;
(PID.TID 0000.0001) rAs =  /* rAs(:,1,:,1) ( units: m^2 ) */
(PID.TID 0000.0001)                 1.146542574196578E+10,      /* I =  1 */
(PID.TID 0000.0001)                 2.377787005983833E+10,      /* I =  2 */
(PID.TID 0000.0001)                 3.336273018972140E+10,      /* I =  3 */
(PID.TID 0000.0001)      . . .
(PID.TID 0000.0001)                 8.869721460381146E+10,      /* I = 46 */
(PID.TID 0000.0001)                 9.004272888354184E+10,      /* I = 47 */
(PID.TID 0000.0001)                 9.071865929421040E+10,      /* I = 48 */
(PID.TID 0000.0001)                 9.071865929421040E+10,      /* I = 49 */
(PID.TID 0000.0001)                 9.004272888354184E+10,      /* I = 50 */
(PID.TID 0000.0001)                 8.869721460381146E+10,      /* I = 51 */
(PID.TID 0000.0001)      . . .
(PID.TID 0000.0001)                 3.336273018972140E+10,      /* I = 94 */
(PID.TID 0000.0001)                 2.377787005983833E+10,      /* I = 95 */
(PID.TID 0000.0001)                 1.146542574196578E+10,      /* I = 96 */
(PID.TID 0000.0001)                 1.146542574196578E+10,      /* I = 97 */
(PID.TID 0000.0001)                 2.377787005983833E+10,      /* I = 98 */
(PID.TID 0000.0001)                 3.336273018972140E+10,      /* I = 99 */
(PID.TID 0000.0001)      . . .
(PID.TID 0000.0001)                 8.869721460381146E+10,      /* I =142 */
(PID.TID 0000.0001)                 9.004272888354184E+10,      /* I =143 */
(PID.TID 0000.0001)                 9.071865929421040E+10,      /* I =144 */
(PID.TID 0000.0001)                 9.071865929421040E+10,      /* I =145 */
(PID.TID 0000.0001)                 9.004272888354184E+10,      /* I =146 */
(PID.TID 0000.0001)                 8.869721460381146E+10,      /* I =147 */
(PID.TID 0000.0001)      . . .
(PID.TID 0000.0001)                 3.336273018972140E+10,      /* I =190 */
(PID.TID 0000.0001)                 2.377787005983833E+10,      /* I =191 */
(PID.TID 0000.0001)                 1.146542574196578E+10       /* I =192 */
(PID.TID 0000.0001)     ;
(PID.TID 0000.0001) rAs =  /* rAs(1,:,1,:) ( units: m^2 ) */
(PID.TID 0000.0001)                 1.146542574196578E+10,      /* J =  1 */
(PID.TID 0000.0001)                 1.953030837147821E+10,      /* J =  2 */
(PID.TID 0000.0001)                 2.933967873337320E+10,      /* J =  3 */
(PID.TID 0000.0001)                 3.796176706541101E+10,      /* J =  4 */
(PID.TID 0000.0001)                 4.567569462064098E+10,      /* J =  5 */
(PID.TID 0000.0001)                 5.267377164042021E+10,      /* J =  6 */
(PID.TID 0000.0001)                 5.905615583203223E+10,      /* J =  7 */
(PID.TID 0000.0001)                 6.487043381386549E+10,      /* J =  8 */
(PID.TID 0000.0001)                 7.013339442433482E+10,      /* J =  9 */
(PID.TID 0000.0001)                 7.484316069116351E+10,      /* J = 10 */
(PID.TID 0000.0001)                 7.898662143005907E+10,      /* J = 11 */
(PID.TID 0000.0001)                 8.254445101987663E+10,      /* J = 12 */
(PID.TID 0000.0001)                 8.549478360691351E+10,      /* J = 13 */
(PID.TID 0000.0001)                 8.781604517750543E+10,      /* J = 14 */
(PID.TID 0000.0001)                 8.948917519517891E+10,      /* J = 15 */
(PID.TID 0000.0001)                 9.049933392602551E+10,      /* J = 16 */
(PID.TID 0000.0001)                 9.083715262395341E+10,      /* J = 17 */
(PID.TID 0000.0001)                 9.049933392602551E+10,      /* J = 18 */
(PID.TID 0000.0001)                 8.948917519517891E+10,      /* J = 19 */
(PID.TID 0000.0001)                 8.781604517750543E+10,      /* J = 20 */
(PID.TID 0000.0001)                 8.549478360691351E+10,      /* J = 21 */
(PID.TID 0000.0001)                 8.254445101987663E+10,      /* J = 22 */
(PID.TID 0000.0001)                 7.898662143005907E+10,      /* J = 23 */
(PID.TID 0000.0001)                 7.484316069116351E+10,      /* J = 24 */
(PID.TID 0000.0001)                 7.013339442433482E+10,      /* J = 25 */
(PID.TID 0000.0001)                 6.487043381386549E+10,      /* J = 26 */
(PID.TID 0000.0001)                 5.905615583203223E+10,      /* J = 27 */
(PID.TID 0000.0001)                 5.267377164042021E+10,      /* J = 28 */
(PID.TID 0000.0001)                 4.567569462064098E+10,      /* J = 29 */
(PID.TID 0000.0001)                 3.796176706541101E+10,      /* J = 30 */
(PID.TID 0000.0001)                 2.933967873337320E+10,      /* J = 31 */
(PID.TID 0000.0001)                 1.953030837147821E+10       /* J = 32 */
(PID.TID 0000.0001)     ;
(PID.TID 0000.0001) globalArea = /* Integrated horizontal Area (m^2) */
(PID.TID 0000.0001)                 5.098642104278459E+14
(PID.TID 0000.0001)     ;
(PID.TID 0000.0001) // =======================================================
(PID.TID 0000.0001) // End of Model config. summary
(PID.TID 0000.0001) // =======================================================
(PID.TID 0000.0001) 
(PID.TID 0000.0001) == Packages configuration : Check & print summary ==
(PID.TID 0000.0001) 
(PID.TID 0000.0001) GAD_CHECK: #define ALLOW_GENERIC_ADVDIFF
(PID.TID 0000.0001) // =======================================================
(PID.TID 0000.0001) // CONFIG_CHECK : Normal End
(PID.TID 0000.0001) // =======================================================
(PID.TID 0000.0001) 
(PID.TID 0000.0001)  MDS_READ_FIELD: opening global file: uVel_cs2-32x40.d19930110z06.bin
(PID.TID 0000.0001)  MDS_READ_FIELD: opening global file: vVel_cs2-32x40.d19930110z06.bin
(PID.TID 0000.0001)  MDS_READ_FIELD: opening global file: TH_cs2-32x40.d19930110z06.bin
(PID.TID 0000.0001)  MDS_READ_FIELD: opening global file: SHwet_cs32x40.d19930110z06.bin
(PID.TID 0000.0001) Start initial hydrostatic pressure computation
(PID.TID 0000.0001) Pressure is predetermined for buoyancyRelation ATMOSPHERIC
(PID.TID 0000.0001) 
(PID.TID 0000.0001)  write diagnostics summary to file ioUnit:      6
Iter.Nb:         0 ; Time(s):  0.0000000000000E+00
------------------------------------------------------------------------
2D/3D diagnostics: Number of lists:     1
------------------------------------------------------------------------
listId=    1 ; file name: surface
 nFlds, nActive,       freq     &     phase        , nLev               
    2  |    2  |         0.003000         0.000000 |   1
 levels:   1
 diag# | name   |   ipt  |  iMate | kLev|   count |   mate.C|           
   294 |TCANOPY |      1 |      0 |   1 |       0 |
    88 |RSURF   |      2 |      0 |   1 |       0 |
------------------------------------------------------------------------
Global & Regional Statistics diagnostics: Number of lists:     0
------------------------------------------------------------------------
  In fizhi_init_vars: Beginning of New Experiment 
  Cold Start: Zero out Turb second moments 
  Initialize fizhi arrays that will be on pickup 
  Cold Start: Zero out Turb second moments 
  Initialize fizhi arrays that will be on pickup 
  Cold Start: Zero out Turb second moments 
  Initialize fizhi arrays that will be on pickup 
  Cold Start: Zero out Turb second moments 
  Initialize fizhi arrays that will be on pickup 
  Cold Start: Zero out Turb second moments 
  Initialize fizhi arrays that will be on pickup 
  Cold Start: Zero out Turb second moments 
  Initialize fizhi arrays that will be on pickup 
(PID.TID 0000.0001) // =======================================================
(PID.TID 0000.0001) // Model current state
(PID.TID 0000.0001) // =======================================================
(PID.TID 0000.0001) 
(PID.TID 0000.0001) // =======================================================
(PID.TID 0000.0001) // Begin MONITOR dynamic field statistics
(PID.TID 0000.0001) // =======================================================
(PID.TID 0000.0001) %MON time_tsnumber                =                     0
(PID.TID 0000.0001) %MON time_secondsf                =   0.0000000000000E+00
(PID.TID 0000.0001) %MON dynstat_eta_max              =   0.0000000000000E+00
(PID.TID 0000.0001) %MON dynstat_eta_min              =   0.0000000000000E+00
(PID.TID 0000.0001) %MON dynstat_eta_mean             =   0.0000000000000E+00
(PID.TID 0000.0001) %MON dynstat_eta_sd               =   0.0000000000000E+00
(PID.TID 0000.0001) %MON dynstat_eta_del2             =   0.0000000000000E+00
(PID.TID 0000.0001) %MON dynstat_uvel_max             =   7.4168994000232E+01
(PID.TID 0000.0001) %MON dynstat_uvel_min             =  -7.7356968118777E+01
(PID.TID 0000.0001) %MON dynstat_uvel_mean            =   1.6873156436436E+00
(PID.TID 0000.0001) %MON dynstat_uvel_sd              =   1.2683785334400E+01
(PID.TID 0000.0001) %MON dynstat_uvel_del2            =   9.0690942518337E-03
(PID.TID 0000.0001) %MON dynstat_vvel_max             =   7.1977839625278E+01
(PID.TID 0000.0001) %MON dynstat_vvel_min             =  -7.7601480847754E+01
(PID.TID 0000.0001) %MON dynstat_vvel_mean            =   1.7739266705184E+00
(PID.TID 0000.0001) %MON dynstat_vvel_sd              =   1.2654949508223E+01
(PID.TID 0000.0001) %MON dynstat_vvel_del2            =   8.8193014828711E-03
(PID.TID 0000.0001) %MON dynstat_wvel_max             =   2.5526985428228E+00
(PID.TID 0000.0001) %MON dynstat_wvel_min             =  -1.9086921917141E+00
(PID.TID 0000.0001) %MON dynstat_wvel_mean            =   6.7742747837447E-05
(PID.TID 0000.0001) %MON dynstat_wvel_sd              =   1.0463126753313E-01
(PID.TID 0000.0001) %MON dynstat_wvel_del2            =   5.9074036114547E-04
(PID.TID 0000.0001) %MON dynstat_theta_max            =   4.7718572189768E+02
(PID.TID 0000.0001) %MON dynstat_theta_min            =   2.2575824549606E+02
(PID.TID 0000.0001) %MON dynstat_theta_mean           =   3.2537577550024E+02
(PID.TID 0000.0001) %MON dynstat_theta_sd             =   3.8390443105554E+01
(PID.TID 0000.0001) %MON dynstat_theta_del2           =   4.0089300469457E-03
(PID.TID 0000.0001) %MON dynstat_salt_max             =   2.2753236510844E-02
(PID.TID 0000.0001) %MON dynstat_salt_min             =   3.4631707808040E-07
(PID.TID 0000.0001) %MON dynstat_salt_mean            =   2.5960189879075E-03
(PID.TID 0000.0001) %MON dynstat_salt_sd              =   4.0987520217191E-03
(PID.TID 0000.0001) %MON dynstat_salt_del2            =   1.9209122649690E-06
(PID.TID 0000.0001) %MON advcfl_uvel_max              =   5.9161983461376E-02
(PID.TID 0000.0001) %MON advcfl_vvel_max              =   7.3216094601912E-02
(PID.TID 0000.0001) %MON advcfl_wvel_max              =   1.2252953005550E-01
(PID.TID 0000.0001) %MON advcfl_W_hf_max              =   1.2252953005550E-01
(PID.TID 0000.0001) %MON pe_b_mean                    =   0.0000000000000E+00
(PID.TID 0000.0001) %MON ke_max                       =   4.4942041989326E+03
(PID.TID 0000.0001) %MON ke_mean                      =   1.6252441475128E+02
(PID.TID 0000.0001) %MON ke_vol                       =   4.9655425890174E+19
(PID.TID 0000.0001) %MON vort_r_min                   =  -3.3939208069564E-04
(PID.TID 0000.0001) %MON vort_r_max                   =   2.6010305458184E-04
(PID.TID 0000.0001) %MON vort_a_mean                  =  -1.7949729393671E-07
(PID.TID 0000.0001) %MON vort_a_sd                    =   8.8764701761902E-05
(PID.TID 0000.0001) %MON vort_p_mean                  =  -1.8184503443233E-07
(PID.TID 0000.0001) %MON vort_p_sd                    =   9.1492906342080E-05
(PID.TID 0000.0001) %MON surfExpan_theta_mean         =   3.2149260382655E-16
(PID.TID 0000.0001) %MON surfExpan_salt_mean          =   1.0175657178177E-20
(PID.TID 0000.0001) %MON surfExpan_Heat_mean          =   3.2548327724861E-14
(PID.TID 0000.0001) %MON En_Budget_T2PE_mean          =  -2.4311409568602E-01
(PID.TID 0000.0001) // =======================================================
(PID.TID 0000.0001) // End MONITOR dynamic field statistics
(PID.TID 0000.0001) // =======================================================
 
 Climatological Dataset is being used.
 Current model year is used to fill Header Dates
  Updated boundary condition data
  ---------------------------------
  Variable: SST     
  Description: 
 Sea surf temp (K) NASA TM 104606 Vol. 1 lat0/lon0 center of first grid box     
  
  Resolution: x=          192  y=           32  Undefined value = 
   999999986991104.     
  Starting latitude =   -90.0000000000000       longitude =
  -180.000000000000     
  Data valid at these times: 
    1:19921228         0    2:19930104         0    3:19930111         0
    4:19930118         0    5:19930125         0    6:19930201         0
    7:19930208         0    8:19930215         0    9:19930222         0
   10:19930301         0   11:19930308         0   12:19930315         0
   13:19930322         0   14:19930329         0   15:19930405         0
   16:19930412         0   17:19930419         0   18:19930426         0
   19:19930503         0   20:19930510         0   21:19930517         0
   22:19930524         0   23:19930531         0   24:19930607         0
   25:19930614         0   26:19930621         0   27:19930628         0
   28:19930705         0   29:19930712         0   30:19930719         0
   31:19930726         0   32:19930802         0   33:19930809         0
   34:19930816         0   35:19930823         0   36:19930830         0
   37:19930906         0   38:19930913         0   39:19930920         0
   40:19930927         0   41:19931004         0   42:19931011         0
   43:19931018         0   44:19931025         0   45:19931101         0
   46:19931108         0   47:19931115         0   48:19931122         0
   49:19931129         0   50:19931206         0   51:19931213         0
   52:19931220         0   53:19931227         0   54:19940103         0

 
 Climatological Dataset is being used.
 Current model year to be used to fill Header Dates
  Updated boundary condition data
  ---------------------------------
  Variable: SICE    
  Description: 
 NCEP Sea ice mask 0=no sea ice 1=sea ice lat0/lon0 center of first grid box    
  
  Resolution: x=          192  y=           32  Undefined value = 
   999999986991104.     
  Starting latitude =   -90.0000000000000       longitude =
  -180.000000000000     
  Data valid at these times: 
    1:19921228         0    2:19930104         0    3:19930111         0
    4:19930118         0    5:19930125         0    6:19930201         0
    7:19930208         0    8:19930215         0    9:19930222         0
   10:19930301         0   11:19930308         0   12:19930315         0
   13:19930322         0   14:19930329         0   15:19930405         0
   16:19930412         0   17:19930419         0   18:19930426         0
   19:19930503         0   20:19930510         0   21:19930517         0
   22:19930524         0   23:19930531         0   24:19930607         0
   25:19930614         0   26:19930621         0   27:19930628         0
   28:19930705         0   29:19930712         0   30:19930719         0
   31:19930726         0   32:19930802         0   33:19930809         0
   34:19930816         0   35:19930823         0   36:19930830         0
   37:19930906         0   38:19930913         0   39:19930920         0
   40:19930927         0   41:19931004         0   42:19931011         0
   43:19931018         0   44:19931025         0   45:19931101         0
   46:19931108         0   47:19931115         0   48:19931122         0
   49:19931129         0   50:19931206         0   51:19931213         0
   52:19931220         0   53:19931227         0   54:19940103         0

 
 Climatological Dataset is being used.
 Current model year is used to fill Header Dates
  Updated boundary condition data
  ---------------------------------
  Variable: SST     
  Description: 
 Sea surf temp (K) NASA TM 104606 Vol. 1 lat0/lon0 center of first grid box     
  
  Resolution: x=          192  y=           32  Undefined value = 
   999999986991104.     
  Starting latitude =   -90.0000000000000       longitude =
  -180.000000000000     
  Data valid at these times: 
    1:19921228         0    2:19930104         0    3:19930111         0
    4:19930118         0    5:19930125         0    6:19930201         0
    7:19930208         0    8:19930215         0    9:19930222         0
   10:19930301         0   11:19930308         0   12:19930315         0
   13:19930322         0   14:19930329         0   15:19930405         0
   16:19930412         0   17:19930419         0   18:19930426         0
   19:19930503         0   20:19930510         0   21:19930517         0
   22:19930524         0   23:19930531         0   24:19930607         0
   25:19930614         0   26:19930621         0   27:19930628         0
   28:19930705         0   29:19930712         0   30:19930719         0
   31:19930726         0   32:19930802         0   33:19930809         0
   34:19930816         0   35:19930823         0   36:19930830         0
   37:19930906         0   38:19930913         0   39:19930920         0
   40:19930927         0   41:19931004         0   42:19931011         0
   43:19931018         0   44:19931025         0   45:19931101         0
   46:19931108         0   47:19931115         0   48:19931122         0
   49:19931129         0   50:19931206         0   51:19931213         0
   52:19931220         0   53:19931227         0   54:19940103         0

 
 Climatological Dataset is being used.
 Current model year to be used to fill Header Dates
  Updated boundary condition data
  ---------------------------------
  Variable: SICE    
  Description: 
 NCEP Sea ice mask 0=no sea ice 1=sea ice lat0/lon0 center of first grid box    
  
  Resolution: x=          192  y=           32  Undefined value = 
   999999986991104.     
  Starting latitude =   -90.0000000000000       longitude =
  -180.000000000000     
  Data valid at these times: 
    1:19921228         0    2:19930104         0    3:19930111         0
    4:19930118         0    5:19930125         0    6:19930201         0
    7:19930208         0    8:19930215         0    9:19930222         0
   10:19930301         0   11:19930308         0   12:19930315         0
   13:19930322         0   14:19930329         0   15:19930405         0
   16:19930412         0   17:19930419         0   18:19930426         0
   19:19930503         0   20:19930510         0   21:19930517         0
   22:19930524         0   23:19930531         0   24:19930607         0
   25:19930614         0   26:19930621         0   27:19930628         0
   28:19930705         0   29:19930712         0   30:19930719         0
   31:19930726         0   32:19930802         0   33:19930809         0
   34:19930816         0   35:19930823         0   36:19930830         0
   37:19930906         0   38:19930913         0   39:19930920         0
   40:19930927         0   41:19931004         0   42:19931011         0
   43:19931018         0   44:19931025         0   45:19931101         0
   46:19931108         0   47:19931115         0   48:19931122         0
   49:19931129         0   50:19931206         0   51:19931213         0
   52:19931220         0   53:19931227         0   54:19940103         0

 
 Climatological Dataset is being used.
 Current model year is used to fill Header Dates
  Updated boundary condition data
  ---------------------------------
  Variable: SST     
  Description: 
 Sea surf temp (K) NASA TM 104606 Vol. 1 lat0/lon0 center of first grid box     
  
  Resolution: x=          192  y=           32  Undefined value = 
   999999986991104.     
  Starting latitude =   -90.0000000000000       longitude =
  -180.000000000000     
  Data valid at these times: 
    1:19921228         0    2:19930104         0    3:19930111         0
    4:19930118         0    5:19930125         0    6:19930201         0
    7:19930208         0    8:19930215         0    9:19930222         0
   10:19930301         0   11:19930308         0   12:19930315         0
   13:19930322         0   14:19930329         0   15:19930405         0
   16:19930412         0   17:19930419         0   18:19930426         0
   19:19930503         0   20:19930510         0   21:19930517         0
   22:19930524         0   23:19930531         0   24:19930607         0
   25:19930614         0   26:19930621         0   27:19930628         0
   28:19930705         0   29:19930712         0   30:19930719         0
   31:19930726         0   32:19930802         0   33:19930809         0
   34:19930816         0   35:19930823         0   36:19930830         0
   37:19930906         0   38:19930913         0   39:19930920         0
   40:19930927         0   41:19931004         0   42:19931011         0
   43:19931018         0   44:19931025         0   45:19931101         0
   46:19931108         0   47:19931115         0   48:19931122         0
   49:19931129         0   50:19931206         0   51:19931213         0
   52:19931220         0   53:19931227         0   54:19940103         0

 
 Climatological Dataset is being used.
 Current model year to be used to fill Header Dates
  Updated boundary condition data
  ---------------------------------
  Variable: SICE    
  Description: 
 NCEP Sea ice mask 0=no sea ice 1=sea ice lat0/lon0 center of first grid box    
  
  Resolution: x=          192  y=           32  Undefined value = 
   999999986991104.     
  Starting latitude =   -90.0000000000000       longitude =
  -180.000000000000     
  Data valid at these times: 
    1:19921228         0    2:19930104         0    3:19930111         0
    4:19930118         0    5:19930125         0    6:19930201         0
    7:19930208         0    8:19930215         0    9:19930222         0
   10:19930301         0   11:19930308         0   12:19930315         0
   13:19930322         0   14:19930329         0   15:19930405         0
   16:19930412         0   17:19930419         0   18:19930426         0
   19:19930503         0   20:19930510         0   21:19930517         0
   22:19930524         0   23:19930531         0   24:19930607         0
   25:19930614         0   26:19930621         0   27:19930628         0
   28:19930705         0   29:19930712         0   30:19930719         0
   31:19930726         0   32:19930802         0   33:19930809         0
   34:19930816         0   35:19930823         0   36:19930830         0
   37:19930906         0   38:19930913         0   39:19930920         0
   40:19930927         0   41:19931004         0   42:19931011         0
   43:19931018         0   44:19931025         0   45:19931101         0
   46:19931108         0   47:19931115         0   48:19931122         0
   49:19931129         0   50:19931206         0   51:19931213         0
   52:19931220         0   53:19931227         0   54:19940103         0

 
 Climatological Dataset is being used.
 Current model year is used to fill Header Dates
  Updated boundary condition data
  ---------------------------------
  Variable: SST     
  Description: 
 Sea surf temp (K) NASA TM 104606 Vol. 1 lat0/lon0 center of first grid box     
  
  Resolution: x=          192  y=           32  Undefined value = 
   999999986991104.     
  Starting latitude =   -90.0000000000000       longitude =
  -180.000000000000     
  Data valid at these times: 
    1:19921228         0    2:19930104         0    3:19930111         0
    4:19930118         0    5:19930125         0    6:19930201         0
    7:19930208         0    8:19930215         0    9:19930222         0
   10:19930301         0   11:19930308         0   12:19930315         0
   13:19930322         0   14:19930329         0   15:19930405         0
   16:19930412         0   17:19930419         0   18:19930426         0
   19:19930503         0   20:19930510         0   21:19930517         0
   22:19930524         0   23:19930531         0   24:19930607         0
   25:19930614         0   26:19930621         0   27:19930628         0
   28:19930705         0   29:19930712         0   30:19930719         0
   31:19930726         0   32:19930802         0   33:19930809         0
   34:19930816         0   35:19930823         0   36:19930830         0
   37:19930906         0   38:19930913         0   39:19930920         0
   40:19930927         0   41:19931004         0   42:19931011         0
   43:19931018         0   44:19931025         0   45:19931101         0
   46:19931108         0   47:19931115         0   48:19931122         0
   49:19931129         0   50:19931206         0   51:19931213         0
   52:19931220         0   53:19931227         0   54:19940103         0

 
 Climatological Dataset is being used.
 Current model year to be used to fill Header Dates
  Updated boundary condition data
  ---------------------------------
  Variable: SICE    
  Description: 
 NCEP Sea ice mask 0=no sea ice 1=sea ice lat0/lon0 center of first grid box    
  
  Resolution: x=          192  y=           32  Undefined value = 
   999999986991104.     
  Starting latitude =   -90.0000000000000       longitude =
  -180.000000000000     
  Data valid at these times: 
    1:19921228         0    2:19930104         0    3:19930111         0
    4:19930118         0    5:19930125         0    6:19930201         0
    7:19930208         0    8:19930215         0    9:19930222         0
   10:19930301         0   11:19930308         0   12:19930315         0
   13:19930322         0   14:19930329         0   15:19930405         0
   16:19930412         0   17:19930419         0   18:19930426         0
   19:19930503         0   20:19930510         0   21:19930517         0
   22:19930524         0   23:19930531         0   24:19930607         0
   25:19930614         0   26:19930621         0   27:19930628         0
   28:19930705         0   29:19930712         0   30:19930719         0
   31:19930726         0   32:19930802         0   33:19930809         0
   34:19930816         0   35:19930823         0   36:19930830         0
   37:19930906         0   38:19930913         0   39:19930920         0
   40:19930927         0   41:19931004         0   42:19931011         0
   43:19931018         0   44:19931025         0   45:19931101         0
   46:19931108         0   47:19931115         0   48:19931122         0
   49:19931129         0   50:19931206         0   51:19931213         0
   52:19931220         0   53:19931227         0   54:19940103         0

 
 Climatological Dataset is being used.
 Current model year is used to fill Header Dates
  Updated boundary condition data
  ---------------------------------
  Variable: SST     
  Description: 
 Sea surf temp (K) NASA TM 104606 Vol. 1 lat0/lon0 center of first grid box     
  
  Resolution: x=          192  y=           32  Undefined value = 
   999999986991104.     
  Starting latitude =   -90.0000000000000       longitude =
  -180.000000000000     
  Data valid at these times: 
    1:19921228         0    2:19930104         0    3:19930111         0
    4:19930118         0    5:19930125         0    6:19930201         0
    7:19930208         0    8:19930215         0    9:19930222         0
   10:19930301         0   11:19930308         0   12:19930315         0
   13:19930322         0   14:19930329         0   15:19930405         0
   16:19930412         0   17:19930419         0   18:19930426         0
   19:19930503         0   20:19930510         0   21:19930517         0
   22:19930524         0   23:19930531         0   24:19930607         0
   25:19930614         0   26:19930621         0   27:19930628         0
   28:19930705         0   29:19930712         0   30:19930719         0
   31:19930726         0   32:19930802         0   33:19930809         0
   34:19930816         0   35:19930823         0   36:19930830         0
   37:19930906         0   38:19930913         0   39:19930920         0
   40:19930927         0   41:19931004         0   42:19931011         0
   43:19931018         0   44:19931025         0   45:19931101         0
   46:19931108         0   47:19931115         0   48:19931122         0
   49:19931129         0   50:19931206         0   51:19931213         0
   52:19931220         0   53:19931227         0   54:19940103         0

 
 Climatological Dataset is being used.
 Current model year to be used to fill Header Dates
  Updated boundary condition data
  ---------------------------------
  Variable: SICE    
  Description: 
 NCEP Sea ice mask 0=no sea ice 1=sea ice lat0/lon0 center of first grid box    
  
  Resolution: x=          192  y=           32  Undefined value = 
   999999986991104.     
  Starting latitude =   -90.0000000000000       longitude =
  -180.000000000000     
  Data valid at these times: 
    1:19921228         0    2:19930104         0    3:19930111         0
    4:19930118         0    5:19930125         0    6:19930201         0
    7:19930208         0    8:19930215         0    9:19930222         0
   10:19930301         0   11:19930308         0   12:19930315         0
   13:19930322         0   14:19930329         0   15:19930405         0
   16:19930412         0   17:19930419         0   18:19930426         0
   19:19930503         0   20:19930510         0   21:19930517         0
   22:19930524         0   23:19930531         0   24:19930607         0
   25:19930614         0   26:19930621         0   27:19930628         0
   28:19930705         0   29:19930712         0   30:19930719         0
   31:19930726         0   32:19930802         0   33:19930809         0
   34:19930816         0   35:19930823         0   36:19930830         0
   37:19930906         0   38:19930913         0   39:19930920         0
   40:19930927         0   41:19931004         0   42:19931011         0
   43:19931018         0   44:19931025         0   45:19931101         0
   46:19931108         0   47:19931115         0   48:19931122         0
   49:19931129         0   50:19931206         0   51:19931213         0
   52:19931220         0   53:19931227         0   54:19940103         0

 
 Climatological Dataset is being used.
 Current model year is used to fill Header Dates
  Updated boundary condition data
  ---------------------------------
  Variable: SST     
  Description: 
 Sea surf temp (K) NASA TM 104606 Vol. 1 lat0/lon0 center of first grid box     
  
  Resolution: x=          192  y=           32  Undefined value = 
   999999986991104.     
  Starting latitude =   -90.0000000000000       longitude =
  -180.000000000000     
  Data valid at these times: 
    1:19921228         0    2:19930104         0    3:19930111         0
    4:19930118         0    5:19930125         0    6:19930201         0
    7:19930208         0    8:19930215         0    9:19930222         0
   10:19930301         0   11:19930308         0   12:19930315         0
   13:19930322         0   14:19930329         0   15:19930405         0
   16:19930412         0   17:19930419         0   18:19930426         0
   19:19930503         0   20:19930510         0   21:19930517         0
   22:19930524         0   23:19930531         0   24:19930607         0
   25:19930614         0   26:19930621         0   27:19930628         0
   28:19930705         0   29:19930712         0   30:19930719         0
   31:19930726         0   32:19930802         0   33:19930809         0
   34:19930816         0   35:19930823         0   36:19930830         0
   37:19930906         0   38:19930913         0   39:19930920         0
   40:19930927         0   41:19931004         0   42:19931011         0
   43:19931018         0   44:19931025         0   45:19931101         0
   46:19931108         0   47:19931115         0   48:19931122         0
   49:19931129         0   50:19931206         0   51:19931213         0
   52:19931220         0   53:19931227         0   54:19940103         0

 
 Climatological Dataset is being used.
 Current model year to be used to fill Header Dates
  Updated boundary condition data
  ---------------------------------
  Variable: SICE    
  Description: 
 NCEP Sea ice mask 0=no sea ice 1=sea ice lat0/lon0 center of first grid box    
  
  Resolution: x=          192  y=           32  Undefined value = 
   999999986991104.     
  Starting latitude =   -90.0000000000000       longitude =
  -180.000000000000     
  Data valid at these times: 
    1:19921228         0    2:19930104         0    3:19930111         0
    4:19930118         0    5:19930125         0    6:19930201         0
    7:19930208         0    8:19930215         0    9:19930222         0
   10:19930301         0   11:19930308         0   12:19930315         0
   13:19930322         0   14:19930329         0   15:19930405         0
   16:19930412         0   17:19930419         0   18:19930426         0
   19:19930503         0   20:19930510         0   21:19930517         0
   22:19930524         0   23:19930531         0   24:19930607         0
   25:19930614         0   26:19930621         0   27:19930628         0
   28:19930705         0   29:19930712         0   30:19930719         0
   31:19930726         0   32:19930802         0   33:19930809         0
   34:19930816         0   35:19930823         0   36:19930830         0
   37:19930906         0   38:19930913         0   39:19930920         0
   40:19930927         0   41:19931004         0   42:19931011         0
   43:19931018         0   44:19931025         0   45:19931101         0
   46:19931108         0   47:19931115         0   48:19931122         0
   49:19931129         0   50:19931206         0   51:19931213         0
   52:19931220         0   53:19931227         0   54:19940103         0

 
 Low-Level Clouds are Grouped between levels:           45  and           31
 Mid-Level Clouds are Grouped between levels:           30  and           19
 
 
 Warning!
 Turbulent Kinetic Energy has not been initialized.
 Cold-Start will use Level 2.0 Turbulence.
 
 
 Top Level Allowed for Convection :            3
           Highest Sub-Cloud Level:           37
           Lowest  Sub-Cloud Level:           41
     Total Number of Random Clouds:           21
 
 Creating Rand Numb Array in RNDCLOUD, iseed=           0
 IRAS:            1   IRAS0:            0  indx:            0
 Current Date     19930110  Current Time        60200
(PID.TID 0000.0001) SOLVE_FOR_PRESSURE: putPmEinXvector =    F
 cg2d: Sum(rhs),rhsMax =   1.67347025126219E-10  1.15856804697961E+04
(PID.TID 0000.0001)                    cg2d_init_res =    1.23419353796943E+05
(PID.TID 0000.0001)                       cg2d_iters =     7
(PID.TID 0000.0001)                         cg2d_res =    6.22087763674323E-11
(PID.TID 0000.0001) // =======================================================
(PID.TID 0000.0001) // Begin MONITOR dynamic field statistics
(PID.TID 0000.0001) // =======================================================
(PID.TID 0000.0001) %MON time_tsnumber                =                     1
(PID.TID 0000.0001) %MON time_secondsf                =   1.2000000000000E+02
(PID.TID 0000.0001) %MON dynstat_eta_max              =   7.3888729971849E+02
(PID.TID 0000.0001) %MON dynstat_eta_min              =  -7.2202134667241E+02
(PID.TID 0000.0001) %MON dynstat_eta_mean             =   3.1380904312883E-16
(PID.TID 0000.0001) %MON dynstat_eta_sd               =   2.8785239066925E+01
(PID.TID 0000.0001) %MON dynstat_eta_del2             =   1.6941651837440E+00
(PID.TID 0000.0001) %MON dynstat_uvel_max             =   7.4082981643170E+01
(PID.TID 0000.0001) %MON dynstat_uvel_min             =  -7.7278829241265E+01
(PID.TID 0000.0001) %MON dynstat_uvel_mean            =   1.6826943853838E+00
(PID.TID 0000.0001) %MON dynstat_uvel_sd              =   1.2684061972718E+01
(PID.TID 0000.0001) %MON dynstat_uvel_del2            =   9.0211728496863E-03
(PID.TID 0000.0001) %MON dynstat_vvel_max             =   7.1927509767334E+01
(PID.TID 0000.0001) %MON dynstat_vvel_min             =  -7.7392796318052E+01
(PID.TID 0000.0001) %MON dynstat_vvel_mean            =   1.7786068352853E+00
(PID.TID 0000.0001) %MON dynstat_vvel_sd              =   1.2651660565623E+01
(PID.TID 0000.0001) %MON dynstat_vvel_del2            =   8.7747236111440E-03
(PID.TID 0000.0001) %MON dynstat_wvel_max             =   2.5195366898099E+00
(PID.TID 0000.0001) %MON dynstat_wvel_min             =  -1.8613540142953E+00
(PID.TID 0000.0001) %MON dynstat_wvel_mean            =   2.9238402567076E-04
(PID.TID 0000.0001) %MON dynstat_wvel_sd              =   1.0423521852828E-01
(PID.TID 0000.0001) %MON dynstat_wvel_del2            =   5.8453299257836E-04
(PID.TID 0000.0001) %MON dynstat_theta_max            =   4.7733428326264E+02
(PID.TID 0000.0001) %MON dynstat_theta_min            =   2.2582998533353E+02
(PID.TID 0000.0001) %MON dynstat_theta_mean           =   3.2541825939107E+02
(PID.TID 0000.0001) %MON dynstat_theta_sd             =   3.8424969116636E+01
(PID.TID 0000.0001) %MON dynstat_theta_del2           =   4.0158235716196E-03
(PID.TID 0000.0001) %MON dynstat_salt_max             =   2.2583027371325E-02
(PID.TID 0000.0001) %MON dynstat_salt_min             =   1.4874454688580E-08
(PID.TID 0000.0001) %MON dynstat_salt_mean            =   2.5884033000829E-03
(PID.TID 0000.0001) %MON dynstat_salt_sd              =   4.0785700345651E-03
(PID.TID 0000.0001) %MON dynstat_salt_del2            =   1.9216065455198E-06
(PID.TID 0000.0001) %MON advcfl_uvel_max              =   5.8948299614571E-02
(PID.TID 0000.0001) %MON advcfl_vvel_max              =   7.3629170282693E-02
(PID.TID 0000.0001) %MON advcfl_wvel_max              =   1.2093776111087E-01
(PID.TID 0000.0001) %MON advcfl_W_hf_max              =   1.2093776111087E-01
(PID.TID 0000.0001) %MON pe_b_mean                    =   3.6814380501576E-03
(PID.TID 0000.0001) %MON ke_max                       =   4.4888306327846E+03
(PID.TID 0000.0001) %MON ke_mean                      =   1.6248705986929E+02
(PID.TID 0000.0001) %MON ke_vol                       =   4.9655425890174E+19
(PID.TID 0000.0001) %MON vort_r_min                   =  -3.3281632539654E-04
(PID.TID 0000.0001) %MON vort_r_max                   =   2.5462049104949E-04
(PID.TID 0000.0001) %MON vort_a_mean                  =  -1.7949729393679E-07
(PID.TID 0000.0001) %MON vort_a_sd                    =   8.8759990591711E-05
(PID.TID 0000.0001) %MON vort_p_mean                  =  -1.8184503443242E-07
(PID.TID 0000.0001) %MON vort_p_sd                    =   9.1487738047665E-05
(PID.TID 0000.0001) %MON surfExpan_theta_mean         =  -1.7172086157338E-02
(PID.TID 0000.0001) %MON surfExpan_salt_mean          =  -2.7556445993286E-06
(PID.TID 0000.0001) %MON surfExpan_Heat_mean          =   3.3578982276659E+00
(PID.TID 0000.0001) %MON En_Budget_T2PE_mean          =  -2.8472904972347E+00
(PID.TID 0000.0001) // =======================================================
(PID.TID 0000.0001) // End MONITOR dynamic field statistics
(PID.TID 0000.0001) // =======================================================
 Current Date     19930110  Current Time        60400
 cg2d: Sum(rhs),rhsMax =  -3.63797880709171E-11  2.29529766662755E+04
(PID.TID 0000.0001)                    cg2d_init_res =    1.19844020544036E+05
(PID.TID 0000.0001)                       cg2d_iters =     7
(PID.TID 0000.0001)                         cg2d_res =    5.58503214332333E-11
(PID.TID 0000.0001) // =======================================================
(PID.TID 0000.0001) // Begin MONITOR dynamic field statistics
(PID.TID 0000.0001) // =======================================================
(PID.TID 0000.0001) %MON time_tsnumber                =                     2
(PID.TID 0000.0001) %MON time_secondsf                =   2.4000000000000E+02
(PID.TID 0000.0001) %MON dynstat_eta_max              =   1.1744227691560E+03
(PID.TID 0000.0001) %MON dynstat_eta_min              =  -1.0493914670149E+03
(PID.TID 0000.0001) %MON dynstat_eta_mean             =  -7.0293225660859E-16
(PID.TID 0000.0001) %MON dynstat_eta_sd               =   5.4610533691259E+01
(PID.TID 0000.0001) %MON dynstat_eta_del2             =   2.7980364396628E+00
(PID.TID 0000.0001) %MON dynstat_uvel_max             =   7.3986337308187E+01
(PID.TID 0000.0001) %MON dynstat_uvel_min             =  -7.7202256269288E+01
(PID.TID 0000.0001) %MON dynstat_uvel_mean            =   1.6780397366992E+00
(PID.TID 0000.0001) %MON dynstat_uvel_sd              =   1.2684300938922E+01
(PID.TID 0000.0001) %MON dynstat_uvel_del2            =   8.9819350655230E-03
(PID.TID 0000.0001) %MON dynstat_vvel_max             =   7.1869549660726E+01
(PID.TID 0000.0001) %MON dynstat_vvel_min             =  -7.7183762704084E+01
(PID.TID 0000.0001) %MON dynstat_vvel_mean            =   1.7832480228016E+00
(PID.TID 0000.0001) %MON dynstat_vvel_sd              =   1.2648740534170E+01
(PID.TID 0000.0001) %MON dynstat_vvel_del2            =   8.7450464995834E-03
(PID.TID 0000.0001) %MON dynstat_wvel_max             =   2.4052853281499E+00
(PID.TID 0000.0001) %MON dynstat_wvel_min             =  -1.7368639415242E+00
(PID.TID 0000.0001) %MON dynstat_wvel_mean            =   4.9645266624313E-04
(PID.TID 0000.0001) %MON dynstat_wvel_sd              =   1.0382052705918E-01
(PID.TID 0000.0001) %MON dynstat_wvel_del2            =   5.7029112201960E-04
(PID.TID 0000.0001) %MON dynstat_theta_max            =   4.7748190942538E+02
(PID.TID 0000.0001) %MON dynstat_theta_min            =   2.2590287765825E+02
(PID.TID 0000.0001) %MON dynstat_theta_mean           =   3.2546078083329E+02
(PID.TID 0000.0001) %MON dynstat_theta_sd             =   3.8460062012903E+01
(PID.TID 0000.0001) %MON dynstat_theta_del2           =   4.0443906746966E-03
(PID.TID 0000.0001) %MON dynstat_salt_max             =   2.2412600915505E-02
(PID.TID 0000.0001) %MON dynstat_salt_min             =   0.0000000000000E+00
(PID.TID 0000.0001) %MON dynstat_salt_mean            =   2.5807913339468E-03
(PID.TID 0000.0001) %MON dynstat_salt_sd              =   4.0598493861933E-03
(PID.TID 0000.0001) %MON dynstat_salt_del2            =   1.9724209481302E-06
(PID.TID 0000.0001) %MON advcfl_uvel_max              =   5.8656888122814E-02
(PID.TID 0000.0001) %MON advcfl_vvel_max              =   7.4428623376087E-02
(PID.TID 0000.0001) %MON advcfl_wvel_max              =   1.1545369575119E-01
(PID.TID 0000.0001) %MON advcfl_W_hf_max              =   1.1457413859912E-01
(PID.TID 0000.0001) %MON pe_b_mean                    =   1.3302940363396E-02
(PID.TID 0000.0001) %MON ke_max                       =   4.4833310740438E+03
(PID.TID 0000.0001) %MON ke_mean                      =   1.6245379725714E+02
(PID.TID 0000.0001) %MON ke_vol                       =   4.9655425890175E+19
(PID.TID 0000.0001) %MON vort_r_min                   =  -3.2591987045503E-04
(PID.TID 0000.0001) %MON vort_r_max                   =   2.4921990835649E-04
(PID.TID 0000.0001) %MON vort_a_mean                  =  -1.7949729393662E-07
(PID.TID 0000.0001) %MON vort_a_sd                    =   8.8755365228494E-05
(PID.TID 0000.0001) %MON vort_p_mean                  =  -1.8184503255960E-07
(PID.TID 0000.0001) %MON vort_p_sd                    =   9.1483259489070E-05
(PID.TID 0000.0001) %MON surfExpan_theta_mean         =  -4.7751980717653E-02
(PID.TID 0000.0001) %MON surfExpan_salt_mean          =  -6.2726944844909E-06
(PID.TID 0000.0001) %MON surfExpan_Heat_mean          =   4.0508767760258E+00
(PID.TID 0000.0001) %MON En_Budget_T2PE_mean          =  -5.1616063877056E+00
(PID.TID 0000.0001) // =======================================================
(PID.TID 0000.0001) // End MONITOR dynamic field statistics
(PID.TID 0000.0001) // =======================================================
 Current Date     19930110  Current Time        60600
 cg2d: Sum(rhs),rhsMax =   4.07453626394272E-10  3.61191900779273E+04
(PID.TID 0000.0001)                    cg2d_init_res =    1.20616209588153E+05
(PID.TID 0000.0001)                       cg2d_iters =     7
(PID.TID 0000.0001)                         cg2d_res =    5.23606488546270E-11
(PID.TID 0000.0001) // =======================================================
(PID.TID 0000.0001) // Begin MONITOR dynamic field statistics
(PID.TID 0000.0001) // =======================================================
(PID.TID 0000.0001) %MON time_tsnumber                =                     3
(PID.TID 0000.0001) %MON time_secondsf                =   3.6000000000000E+02
(PID.TID 0000.0001) %MON dynstat_eta_max              =   1.2914912100162E+03
(PID.TID 0000.0001) %MON dynstat_eta_min              =  -1.0112360919445E+03
(PID.TID 0000.0001) %MON dynstat_eta_mean             =   2.6611006857325E-15
(PID.TID 0000.0001) %MON dynstat_eta_sd               =   7.8334860974927E+01
(PID.TID 0000.0001) %MON dynstat_eta_del2             =   3.4528677644294E+00
(PID.TID 0000.0001) %MON dynstat_uvel_max             =   7.3860853633959E+01
(PID.TID 0000.0001) %MON dynstat_uvel_min             =  -7.7128818481350E+01
(PID.TID 0000.0001) %MON dynstat_uvel_mean            =   1.6734283949950E+00
(PID.TID 0000.0001) %MON dynstat_uvel_sd              =   1.2685217433917E+01
(PID.TID 0000.0001) %MON dynstat_uvel_del2            =   8.9633882717747E-03
(PID.TID 0000.0001) %MON dynstat_vvel_max             =   7.1853786633714E+01
(PID.TID 0000.0001) %MON dynstat_vvel_min             =  -7.6976674824069E+01
(PID.TID 0000.0001) %MON dynstat_vvel_mean            =   1.7877502963122E+00
(PID.TID 0000.0001) %MON dynstat_vvel_sd              =   1.2646762676765E+01
(PID.TID 0000.0001) %MON dynstat_vvel_del2            =   8.7355101118844E-03
(PID.TID 0000.0001) %MON dynstat_wvel_max             =   2.2196133230343E+00
(PID.TID 0000.0001) %MON dynstat_wvel_min             =  -1.5836979042469E+00
(PID.TID 0000.0001) %MON dynstat_wvel_mean            =   6.7627249300157E-04
(PID.TID 0000.0001) %MON dynstat_wvel_sd              =   1.0344008713757E-01
(PID.TID 0000.0001) %MON dynstat_wvel_del2            =   5.5057707349281E-04
(PID.TID 0000.0001) %MON dynstat_theta_max            =   4.7762902065807E+02
(PID.TID 0000.0001) %MON dynstat_theta_min            =   2.2597418349861E+02
(PID.TID 0000.0001) %MON dynstat_theta_mean           =   3.2550333245600E+02
(PID.TID 0000.0001) %MON dynstat_theta_sd             =   3.8495700431801E+01
(PID.TID 0000.0001) %MON dynstat_theta_del2           =   4.0610089689170E-03
(PID.TID 0000.0001) %MON dynstat_salt_max             =   2.2325559767311E-02
(PID.TID 0000.0001) %MON dynstat_salt_min             =   0.0000000000000E+00
(PID.TID 0000.0001) %MON dynstat_salt_mean            =   2.5730946794142E-03
(PID.TID 0000.0001) %MON dynstat_salt_sd              =   4.0426267259290E-03
(PID.TID 0000.0001) %MON dynstat_salt_del2            =   1.9536463009749E-06
(PID.TID 0000.0001) %MON advcfl_uvel_max              =   5.8372766111141E-02
(PID.TID 0000.0001) %MON advcfl_vvel_max              =   7.5264463509190E-02
(PID.TID 0000.0001) %MON advcfl_wvel_max              =   1.0654143950565E-01
(PID.TID 0000.0001) %MON advcfl_W_hf_max              =   1.0525711378056E-01
(PID.TID 0000.0001) %MON pe_b_mean                    =   2.7510887435611E-02
(PID.TID 0000.0001) %MON ke_max                       =   4.4777084908359E+03
(PID.TID 0000.0001) %MON ke_mean                      =   1.6244079711391E+02
(PID.TID 0000.0001) %MON ke_vol                       =   4.9655425890175E+19
(PID.TID 0000.0001) %MON vort_r_min                   =  -3.1893789140178E-04
(PID.TID 0000.0001) %MON vort_r_max                   =   2.4391712605708E-04
(PID.TID 0000.0001) %MON vort_a_mean                  =  -1.7949729393686E-07
(PID.TID 0000.0001) %MON vort_a_sd                    =   8.8751206863859E-05
(PID.TID 0000.0001) %MON vort_p_mean                  =  -1.8184502931985E-07
(PID.TID 0000.0001) %MON vort_p_sd                    =   9.1479421760238E-05
(PID.TID 0000.0001) %MON surfExpan_theta_mean         =  -7.5890642574142E-02
(PID.TID 0000.0001) %MON surfExpan_salt_mean          =  -9.5258681539066E-06
(PID.TID 0000.0001) %MON surfExpan_Heat_mean          =   4.6055879138704E+00
(PID.TID 0000.0001) %MON En_Budget_T2PE_mean          =  -7.1417609423060E+00
(PID.TID 0000.0001) // =======================================================
(PID.TID 0000.0001) // End MONITOR dynamic field statistics
(PID.TID 0000.0001) // =======================================================
 Current Date     19930110  Current Time        60800
 cg2d: Sum(rhs),rhsMax =  -8.14907252788544E-10  4.96013891509531E+04
(PID.TID 0000.0001)                    cg2d_init_res =    1.24677777550191E+05
(PID.TID 0000.0001)                       cg2d_iters =     7
(PID.TID 0000.0001)                         cg2d_res =    5.42534446700286E-11
(PID.TID 0000.0001) // =======================================================
(PID.TID 0000.0001) // Begin MONITOR dynamic field statistics
(PID.TID 0000.0001) // =======================================================
(PID.TID 0000.0001) %MON time_tsnumber                =                     4
(PID.TID 0000.0001) %MON time_secondsf                =   4.8000000000000E+02
(PID.TID 0000.0001) %MON dynstat_eta_max              =   1.1563447420415E+03
(PID.TID 0000.0001) %MON dynstat_eta_min              =  -8.0312894432926E+02
(PID.TID 0000.0001) %MON dynstat_eta_mean             =   3.9163368582478E-15
(PID.TID 0000.0001) %MON dynstat_eta_sd               =   1.0114961141908E+02
(PID.TID 0000.0001) %MON dynstat_eta_del2             =   3.9342162555034E+00
(PID.TID 0000.0001) %MON dynstat_uvel_max             =   7.3700070040399E+01
(PID.TID 0000.0001) %MON dynstat_uvel_min             =  -7.7057980296537E+01
(PID.TID 0000.0001) %MON dynstat_uvel_mean            =   1.6688080940140E+00
(PID.TID 0000.0001) %MON dynstat_uvel_sd              =   1.2686352573370E+01
(PID.TID 0000.0001) %MON dynstat_uvel_del2            =   8.9591109047760E-03
(PID.TID 0000.0001) %MON dynstat_vvel_max             =   7.1902179348568E+01
(PID.TID 0000.0001) %MON dynstat_vvel_min             =  -7.6772696389156E+01
(PID.TID 0000.0001) %MON dynstat_vvel_mean            =   1.7922361677758E+00
(PID.TID 0000.0001) %MON dynstat_vvel_sd              =   1.2645281651017E+01
(PID.TID 0000.0001) %MON dynstat_vvel_del2            =   8.7393678977506E-03
(PID.TID 0000.0001) %MON dynstat_wvel_max             =   1.9915801029285E+00
(PID.TID 0000.0001) %MON dynstat_wvel_min             =  -1.4204046106375E+00
(PID.TID 0000.0001) %MON dynstat_wvel_mean            =   8.2881448256077E-04
(PID.TID 0000.0001) %MON dynstat_wvel_sd              =   1.0312781650632E-01
(PID.TID 0000.0001) %MON dynstat_wvel_del2            =   5.2757832054257E-04
(PID.TID 0000.0001) %MON dynstat_theta_max            =   4.7777536698012E+02
(PID.TID 0000.0001) %MON dynstat_theta_min            =   2.2604613090410E+02
(PID.TID 0000.0001) %MON dynstat_theta_mean           =   3.2554587644692E+02
(PID.TID 0000.0001) %MON dynstat_theta_sd             =   3.8531871538515E+01
(PID.TID 0000.0001) %MON dynstat_theta_del2           =   4.0886796669684E-03
(PID.TID 0000.0001) %MON dynstat_salt_max             =   2.2238439952602E-02
(PID.TID 0000.0001) %MON dynstat_salt_min             =   0.0000000000000E+00
(PID.TID 0000.0001) %MON dynstat_salt_mean            =   2.5653976577925E-03
(PID.TID 0000.0001) %MON dynstat_salt_sd              =   4.0259065416563E-03
(PID.TID 0000.0001) %MON dynstat_salt_del2            =   1.9571759449806E-06
(PID.TID 0000.0001) %MON advcfl_uvel_max              =   5.8146228966013E-02
(PID.TID 0000.0001) %MON advcfl_vvel_max              =   7.5908142055086E-02
(PID.TID 0000.0001) %MON advcfl_wvel_max              =   9.5595844940569E-02
(PID.TID 0000.0001) %MON advcfl_W_hf_max              =   9.4330114922263E-02
(PID.TID 0000.0001) %MON pe_b_mean                    =   4.6126462096945E-02
(PID.TID 0000.0001) %MON ke_max                       =   4.4719095371687E+03
(PID.TID 0000.0001) %MON ke_mean                      =   1.6243680060839E+02
(PID.TID 0000.0001) %MON ke_vol                       =   4.9655425890175E+19
(PID.TID 0000.0001) %MON vort_r_min                   =  -3.1193494201262E-04
(PID.TID 0000.0001) %MON vort_r_max                   =   2.3869848833313E-04
(PID.TID 0000.0001) %MON vort_a_mean                  =  -1.7949729393677E-07
(PID.TID 0000.0001) %MON vort_a_sd                    =   8.8747034647958E-05
(PID.TID 0000.0001) %MON vort_p_mean                  =  -1.8184502572438E-07
(PID.TID 0000.0001) %MON vort_p_sd                    =   9.1475969680545E-05
(PID.TID 0000.0001) %MON surfExpan_theta_mean         =  -1.0094712539253E-01
(PID.TID 0000.0001) %MON surfExpan_salt_mean          =  -1.2438042735844E-05
(PID.TID 0000.0001) %MON surfExpan_Heat_mean          =   5.0299900821439E+00
(PID.TID 0000.0001) %MON En_Budget_T2PE_mean          =  -8.7495804912571E+00
(PID.TID 0000.0001) // =======================================================
(PID.TID 0000.0001) // End MONITOR dynamic field statistics
(PID.TID 0000.0001) // =======================================================
 Current Date     19930110  Current Time        61000
 cg2d: Sum(rhs),rhsMax =  -1.62981450557709E-09  6.27597960321965E+04
(PID.TID 0000.0001)                    cg2d_init_res =    1.30153145772054E+05
(PID.TID 0000.0001)                       cg2d_iters =     7
(PID.TID 0000.0001)                         cg2d_res =    5.77334492579757E-11
(PID.TID 0000.0001) // =======================================================
(PID.TID 0000.0001) // Begin MONITOR dynamic field statistics
(PID.TID 0000.0001) // =======================================================
(PID.TID 0000.0001) %MON time_tsnumber                =                     5
(PID.TID 0000.0001) %MON time_secondsf                =   6.0000000000000E+02
(PID.TID 0000.0001) %MON dynstat_eta_max              =   9.2080835703446E+02
(PID.TID 0000.0001) %MON dynstat_eta_min              =  -9.1922133068409E+02
(PID.TID 0000.0001) %MON dynstat_eta_mean             =  -3.6150801768442E-15
(PID.TID 0000.0001) %MON dynstat_eta_sd               =   1.2387789645911E+02
(PID.TID 0000.0001) %MON dynstat_eta_del2             =   4.4425668335342E+00
(PID.TID 0000.0001) %MON dynstat_uvel_max             =   7.3508872044617E+01
(PID.TID 0000.0001) %MON dynstat_uvel_min             =  -7.6988973301178E+01
(PID.TID 0000.0001) %MON dynstat_uvel_mean            =   1.6642075201640E+00
(PID.TID 0000.0001) %MON dynstat_uvel_sd              =   1.2687826168292E+01
(PID.TID 0000.0001) %MON dynstat_uvel_del2            =   8.9565427980130E-03
(PID.TID 0000.0001) %MON dynstat_vvel_max             =   7.2141749330897E+01
(PID.TID 0000.0001) %MON dynstat_vvel_min             =  -7.6572761429993E+01
(PID.TID 0000.0001) %MON dynstat_vvel_mean            =   1.7966786329337E+00
(PID.TID 0000.0001) %MON dynstat_vvel_sd              =   1.2644428351779E+01
(PID.TID 0000.0001) %MON dynstat_vvel_del2            =   8.7443901971495E-03
(PID.TID 0000.0001) %MON dynstat_wvel_max             =   1.7447336054081E+00
(PID.TID 0000.0001) %MON dynstat_wvel_min             =  -1.3090764322357E+00
(PID.TID 0000.0001) %MON dynstat_wvel_mean            =   9.5248755843457E-04
(PID.TID 0000.0001) %MON dynstat_wvel_sd              =   1.0292101017459E-01
(PID.TID 0000.0001) %MON dynstat_wvel_del2            =   5.0341481440295E-04
(PID.TID 0000.0001) %MON dynstat_theta_max            =   4.7792103389198E+02
(PID.TID 0000.0001) %MON dynstat_theta_min            =   2.2611739477447E+02
(PID.TID 0000.0001) %MON dynstat_theta_mean           =   3.2558843679334E+02
(PID.TID 0000.0001) %MON dynstat_theta_sd             =   3.8568555270367E+01
(PID.TID 0000.0001) %MON dynstat_theta_del2           =   4.1200408682084E-03
(PID.TID 0000.0001) %MON dynstat_salt_max             =   2.2160389766909E-02
(PID.TID 0000.0001) %MON dynstat_salt_min             =   0.0000000000000E+00
(PID.TID 0000.0001) %MON dynstat_salt_mean            =   2.5577139409546E-03
(PID.TID 0000.0001) %MON dynstat_salt_sd              =   4.0101177234920E-03
(PID.TID 0000.0001) %MON dynstat_salt_del2            =   1.9594760969475E-06
(PID.TID 0000.0001) %MON advcfl_uvel_max              =   5.7995278331900E-02
(PID.TID 0000.0001) %MON advcfl_vvel_max              =   7.6248157340618E-02
(PID.TID 0000.0001) %MON advcfl_wvel_max              =   8.3747213059587E-02
(PID.TID 0000.0001) %MON advcfl_W_hf_max              =   8.2753020640822E-02
(PID.TID 0000.0001) %MON pe_b_mean                    =   6.9568308954103E-02
(PID.TID 0000.0001) %MON ke_max                       =   4.4659053310264E+03
(PID.TID 0000.0001) %MON ke_mean                      =   1.6244496149625E+02
(PID.TID 0000.0001) %MON ke_vol                       =   4.9655425890175E+19
(PID.TID 0000.0001) %MON vort_r_min                   =  -3.0494906956028E-04
(PID.TID 0000.0001) %MON vort_r_max                   =   2.3355020186475E-04
(PID.TID 0000.0001) %MON vort_a_mean                  =  -1.7949729393676E-07
(PID.TID 0000.0001) %MON vort_a_sd                    =   8.8743075695107E-05
(PID.TID 0000.0001) %MON vort_p_mean                  =  -1.8184502257403E-07
(PID.TID 0000.0001) %MON vort_p_sd                    =   9.1472865865279E-05
(PID.TID 0000.0001) %MON surfExpan_theta_mean         =  -1.2246935112456E-01
(PID.TID 0000.0001) %MON surfExpan_salt_mean          =  -1.4940997512097E-05
(PID.TID 0000.0001) %MON surfExpan_Heat_mean          =   5.3372973059660E+00
(PID.TID 0000.0001) %MON En_Budget_T2PE_mean          =  -9.9650358015676E+00
(PID.TID 0000.0001) // =======================================================
(PID.TID 0000.0001) // End MONITOR dynamic field statistics
(PID.TID 0000.0001) // =======================================================
 Current Date     19930110  Current Time        61200
 cg2d: Sum(rhs),rhsMax =  -2.56113708019257E-09  7.49880591154438E+04
(PID.TID 0000.0001)                    cg2d_init_res =    1.36081544764232E+05
(PID.TID 0000.0001)                       cg2d_iters =     7
(PID.TID 0000.0001)                         cg2d_res =    6.07267913266400E-11
(PID.TID 0000.0001) // =======================================================
(PID.TID 0000.0001) // Begin MONITOR dynamic field statistics
(PID.TID 0000.0001) // =======================================================
(PID.TID 0000.0001) %MON time_tsnumber                =                     6
(PID.TID 0000.0001) %MON time_secondsf                =   7.2000000000000E+02
(PID.TID 0000.0001) %MON dynstat_eta_max              =   1.0993092225786E+03
(PID.TID 0000.0001) %MON dynstat_eta_min              =  -9.8683873435909E+02
(PID.TID 0000.0001) %MON dynstat_eta_mean             =   6.2259714156760E-15
(PID.TID 0000.0001) %MON dynstat_eta_sd               =   1.4687179531104E+02
(PID.TID 0000.0001) %MON dynstat_eta_del2             =   5.0003358296665E+00
(PID.TID 0000.0001) %MON dynstat_uvel_max             =   7.3300328447332E+01
(PID.TID 0000.0001) %MON dynstat_uvel_min             =  -7.6920837821190E+01
(PID.TID 0000.0001) %MON dynstat_uvel_mean            =   1.6596114664642E+00
(PID.TID 0000.0001) %MON dynstat_uvel_sd              =   1.2689413707345E+01
(PID.TID 0000.0001) %MON dynstat_uvel_del2            =   8.9503731627250E-03
(PID.TID 0000.0001) %MON dynstat_vvel_max             =   7.2176427556426E+01
(PID.TID 0000.0001) %MON dynstat_vvel_min             =  -7.6377494776763E+01
(PID.TID 0000.0001) %MON dynstat_vvel_mean            =   1.8011150639758E+00
(PID.TID 0000.0001) %MON dynstat_vvel_sd              =   1.2643917831438E+01
(PID.TID 0000.0001) %MON dynstat_vvel_del2            =   8.7463864149613E-03
(PID.TID 0000.0001) %MON dynstat_wvel_max             =   1.4960561748558E+00
(PID.TID 0000.0001) %MON dynstat_wvel_min             =  -1.2376185180175E+00
(PID.TID 0000.0001) %MON dynstat_wvel_mean            =   1.0473941144224E-03
(PID.TID 0000.0001) %MON dynstat_wvel_sd              =   1.0284314994955E-01
(PID.TID 0000.0001) %MON dynstat_wvel_del2            =   4.8009980342045E-04
(PID.TID 0000.0001) %MON dynstat_theta_max            =   4.7806577668354E+02
(PID.TID 0000.0001) %MON dynstat_theta_min            =   2.2616941416045E+02
(PID.TID 0000.0001) %MON dynstat_theta_mean           =   3.2562495116946E+02
(PID.TID 0000.0001) %MON dynstat_theta_sd             =   3.8614628895637E+01
(PID.TID 0000.0001) %MON dynstat_theta_del2           =   4.1225539735282E-03
(PID.TID 0000.0001) %MON dynstat_salt_max             =   2.2054156599361E-02
(PID.TID 0000.0001) %MON dynstat_salt_min             =   0.0000000000000E+00
(PID.TID 0000.0001) %MON dynstat_salt_mean            =   2.5526623939371E-03
(PID.TID 0000.0001) %MON dynstat_salt_sd              =   3.9992676721471E-03
(PID.TID 0000.0001) %MON dynstat_salt_del2            =   1.9554110413371E-06
(PID.TID 0000.0001) %MON advcfl_uvel_max              =   5.7906682192680E-02
(PID.TID 0000.0001) %MON advcfl_vvel_max              =   7.6284809498639E-02
(PID.TID 0000.0001) %MON advcfl_wvel_max              =   7.1810696393077E-02
(PID.TID 0000.0001) %MON advcfl_W_hf_max              =   7.1162953764481E-02
(PID.TID 0000.0001) %MON pe_b_mean                    =   9.8287350013382E-02
(PID.TID 0000.0001) %MON ke_max                       =   4.4596865736193E+03
(PID.TID 0000.0001) %MON ke_mean                      =   1.6245890768289E+02
(PID.TID 0000.0001) %MON ke_vol                       =   4.9655425890175E+19
(PID.TID 0000.0001) %MON vort_r_min                   =  -2.9799925386016E-04
(PID.TID 0000.0001) %MON vort_r_max                   =   2.2846024638655E-04
(PID.TID 0000.0001) %MON vort_a_mean                  =  -1.7949729393695E-07
(PID.TID 0000.0001) %MON vort_a_sd                    =   8.8739014612014E-05
(PID.TID 0000.0001) %MON vort_p_mean                  =  -1.8184502030617E-07
(PID.TID 0000.0001) %MON vort_p_sd                    =   9.1470006322233E-05
(PID.TID 0000.0001) %MON surfExpan_theta_mean         =  -1.3980884300114E-01
(PID.TID 0000.0001) %MON surfExpan_salt_mean          =  -1.7167512601828E-05
(PID.TID 0000.0001) %MON surfExpan_Heat_mean          =   5.5939765350413E+00
(PID.TID 0000.0001) %MON En_Budget_T2PE_mean          =  -1.0802581616381E+01
(PID.TID 0000.0001) // =======================================================
(PID.TID 0000.0001) // End MONITOR dynamic field statistics
(PID.TID 0000.0001) // =======================================================
 Current Date     19930110  Current Time        61400
 cg2d: Sum(rhs),rhsMax =   3.49245965480804E-10  9.01747892641124E+04
(PID.TID 0000.0001)                    cg2d_init_res =    1.42193890575546E+05
(PID.TID 0000.0001)                       cg2d_iters =     7
(PID.TID 0000.0001)                         cg2d_res =    6.28453004191118E-11
(PID.TID 0000.0001) // =======================================================
(PID.TID 0000.0001) // Begin MONITOR dynamic field statistics
(PID.TID 0000.0001) // =======================================================
(PID.TID 0000.0001) %MON time_tsnumber                =                     7
(PID.TID 0000.0001) %MON time_secondsf                =   8.4000000000000E+02
(PID.TID 0000.0001) %MON dynstat_eta_max              =   1.2594734352470E+03
(PID.TID 0000.0001) %MON dynstat_eta_min              =  -1.1242386928883E+03
(PID.TID 0000.0001) %MON dynstat_eta_mean             =  -8.0335115040981E-16
(PID.TID 0000.0001) %MON dynstat_eta_sd               =   1.7025673017235E+02
(PID.TID 0000.0001) %MON dynstat_eta_del2             =   5.5368285599718E+00
(PID.TID 0000.0001) %MON dynstat_uvel_max             =   7.3094062247432E+01
(PID.TID 0000.0001) %MON dynstat_uvel_min             =  -7.6852465445907E+01
(PID.TID 0000.0001) %MON dynstat_uvel_mean            =   1.6550137782787E+00
(PID.TID 0000.0001) %MON dynstat_uvel_sd              =   1.2691187242238E+01
(PID.TID 0000.0001) %MON dynstat_uvel_del2            =   8.9428461285125E-03
(PID.TID 0000.0001) %MON dynstat_vvel_max             =   7.2338651477099E+01
(PID.TID 0000.0001) %MON dynstat_vvel_min             =  -7.6186504045073E+01
(PID.TID 0000.0001) %MON dynstat_vvel_mean            =   1.8055456168431E+00
(PID.TID 0000.0001) %MON dynstat_vvel_sd              =   1.2643746474201E+01
(PID.TID 0000.0001) %MON dynstat_vvel_del2            =   8.7472946124429E-03
(PID.TID 0000.0001) %MON dynstat_wvel_max             =   1.2738161253254E+00
(PID.TID 0000.0001) %MON dynstat_wvel_min             =  -1.2480553939890E+00
(PID.TID 0000.0001) %MON dynstat_wvel_mean            =   1.1134651104835E-03
(PID.TID 0000.0001) %MON dynstat_wvel_sd              =   1.0291402308783E-01
(PID.TID 0000.0001) %MON dynstat_wvel_del2            =   4.5933197303028E-04
(PID.TID 0000.0001) %MON dynstat_theta_max            =   4.7820968909153E+02
(PID.TID 0000.0001) %MON dynstat_theta_min            =   2.2622165956253E+02
(PID.TID 0000.0001) %MON dynstat_theta_mean           =   3.2566147888650E+02
(PID.TID 0000.0001) %MON dynstat_theta_sd             =   3.8661193352395E+01
(PID.TID 0000.0001) %MON dynstat_theta_del2           =   4.1299963437989E-03
(PID.TID 0000.0001) %MON dynstat_salt_max             =   2.1962301370707E-02
(PID.TID 0000.0001) %MON dynstat_salt_min             =   0.0000000000000E+00
(PID.TID 0000.0001) %MON dynstat_salt_mean            =   2.5476095891830E-03
(PID.TID 0000.0001) %MON dynstat_salt_sd              =   3.9890154501580E-03
(PID.TID 0000.0001) %MON dynstat_salt_del2            =   1.9489344746613E-06
(PID.TID 0000.0001) %MON advcfl_uvel_max              =   5.7848816482425E-02
(PID.TID 0000.0001) %MON advcfl_vvel_max              =   7.6085665096135E-02
(PID.TID 0000.0001) %MON advcfl_wvel_max              =   6.1143174015621E-02
(PID.TID 0000.0001) %MON advcfl_W_hf_max              =   6.1084471801439E-02
(PID.TID 0000.0001) %MON pe_b_mean                    =   1.3265041955745E-01
(PID.TID 0000.0001) %MON ke_max                       =   4.4532732279103E+03
(PID.TID 0000.0001) %MON ke_mean                      =   1.6247949264842E+02
(PID.TID 0000.0001) %MON ke_vol                       =   4.9655425890175E+19
(PID.TID 0000.0001) %MON vort_r_min                   =  -2.9109606956852E-04
(PID.TID 0000.0001) %MON vort_r_max                   =   2.2341969151871E-04
(PID.TID 0000.0001) %MON vort_a_mean                  =  -1.7949729393651E-07
(PID.TID 0000.0001) %MON vort_a_sd                    =   8.8735002873574E-05
(PID.TID 0000.0001) %MON vort_p_mean                  =  -1.8184501898504E-07
(PID.TID 0000.0001) %MON vort_p_sd                    =   9.1467428132019E-05
(PID.TID 0000.0001) %MON surfExpan_theta_mean         =  -1.5292437553234E-01
(PID.TID 0000.0001) %MON surfExpan_salt_mean          =  -1.9021444761061E-05
(PID.TID 0000.0001) %MON surfExpan_Heat_mean          =   5.7926034393629E+00
(PID.TID 0000.0001) %MON En_Budget_T2PE_mean          =  -1.1251519056094E+01
(PID.TID 0000.0001) // =======================================================
(PID.TID 0000.0001) // End MONITOR dynamic field statistics
(PID.TID 0000.0001) // =======================================================
 Current Date     19930110  Current Time        61600
 cg2d: Sum(rhs),rhsMax =   1.86264514923096E-09  1.11062329762952E+05
(PID.TID 0000.0001)                    cg2d_init_res =    1.48285602495205E+05
(PID.TID 0000.0001)                       cg2d_iters =     7
(PID.TID 0000.0001)                         cg2d_res =    6.44232256711444E-11
(PID.TID 0000.0001) // =======================================================
(PID.TID 0000.0001) // Begin MONITOR dynamic field statistics
(PID.TID 0000.0001) // =======================================================
(PID.TID 0000.0001) %MON time_tsnumber                =                     8
(PID.TID 0000.0001) %MON time_secondsf                =   9.6000000000000E+02
(PID.TID 0000.0001) %MON dynstat_eta_max              =   1.5531278580524E+03
(PID.TID 0000.0001) %MON dynstat_eta_min              =  -1.3478727864379E+03
(PID.TID 0000.0001) %MON dynstat_eta_mean             =  -4.4184313272540E-15
(PID.TID 0000.0001) %MON dynstat_eta_sd               =   1.9412294260124E+02
(PID.TID 0000.0001) %MON dynstat_eta_del2             =   5.9996044110415E+00
(PID.TID 0000.0001) %MON dynstat_uvel_max             =   7.2904767943463E+01
(PID.TID 0000.0001) %MON dynstat_uvel_min             =  -7.6782834252909E+01
(PID.TID 0000.0001) %MON dynstat_uvel_mean            =   1.6504058870224E+00
(PID.TID 0000.0001) %MON dynstat_uvel_sd              =   1.2693011077607E+01
(PID.TID 0000.0001) %MON dynstat_uvel_del2            =   8.9373979821714E-03
(PID.TID 0000.0001) %MON dynstat_vvel_max             =   7.2496667867558E+01
(PID.TID 0000.0001) %MON dynstat_vvel_min             =  -7.5999803457004E+01
(PID.TID 0000.0001) %MON dynstat_vvel_mean            =   1.8099892588156E+00
(PID.TID 0000.0001) %MON dynstat_vvel_sd              =   1.2643710252471E+01
(PID.TID 0000.0001) %MON dynstat_vvel_del2            =   8.7503379954336E-03
(PID.TID 0000.0001) %MON dynstat_wvel_max             =   1.1290725636764E+00
(PID.TID 0000.0001) %MON dynstat_wvel_min             =  -1.2581841053718E+00
(PID.TID 0000.0001) %MON dynstat_wvel_mean            =   1.1529123293985E-03
(PID.TID 0000.0001) %MON dynstat_wvel_sd              =   1.0314706602677E-01
(PID.TID 0000.0001) %MON dynstat_wvel_del2            =   4.4247897951203E-04
(PID.TID 0000.0001) %MON dynstat_theta_max            =   4.7835253845463E+02
(PID.TID 0000.0001) %MON dynstat_theta_min            =   2.2627416068934E+02
(PID.TID 0000.0001) %MON dynstat_theta_mean           =   3.2569799711916E+02
(PID.TID 0000.0001) %MON dynstat_theta_sd             =   3.8708246424053E+01
(PID.TID 0000.0001) %MON dynstat_theta_del2           =   4.1445243915924E-03
(PID.TID 0000.0001) %MON dynstat_salt_max             =   2.1870413122996E-02
(PID.TID 0000.0001) %MON dynstat_salt_min             =   0.0000000000000E+00
(PID.TID 0000.0001) %MON dynstat_salt_mean            =   2.5425564527034E-03
(PID.TID 0000.0001) %MON dynstat_salt_sd              =   3.9789038593483E-03
(PID.TID 0000.0001) %MON dynstat_salt_del2            =   1.9483093502409E-06
(PID.TID 0000.0001) %MON advcfl_uvel_max              =   5.7787043305908E-02
(PID.TID 0000.0001) %MON advcfl_vvel_max              =   7.5759027214968E-02
(PID.TID 0000.0001) %MON advcfl_wvel_max              =   6.0392837057847E-02
(PID.TID 0000.0001) %MON advcfl_W_hf_max              =   6.0829342561328E-02
(PID.TID 0000.0001) %MON pe_b_mean                    =   1.7303886023053E-01
(PID.TID 0000.0001) %MON ke_max                       =   4.4467024615942E+03
(PID.TID 0000.0001) %MON ke_mean                      =   1.6250246105463E+02
(PID.TID 0000.0001) %MON ke_vol                       =   4.9655425890175E+19
(PID.TID 0000.0001) %MON vort_r_min                   =  -2.8423345112137E-04
(PID.TID 0000.0001) %MON vort_r_max                   =   2.1842199759161E-04
(PID.TID 0000.0001) %MON vort_a_mean                  =  -1.7949729393677E-07
(PID.TID 0000.0001) %MON vort_a_sd                    =   8.8730876740227E-05
(PID.TID 0000.0001) %MON vort_p_mean                  =  -1.8184501838075E-07
(PID.TID 0000.0001) %MON vort_p_sd                    =   9.1465067952943E-05
(PID.TID 0000.0001) %MON surfExpan_theta_mean         =  -1.6202833958116E-01
(PID.TID 0000.0001) %MON surfExpan_salt_mean          =  -2.0459721077606E-05
(PID.TID 0000.0001) %MON surfExpan_Heat_mean          =   5.9459552964106E+00
(PID.TID 0000.0001) %MON En_Budget_T2PE_mean          =  -1.1341103074982E+01
(PID.TID 0000.0001) // =======================================================
(PID.TID 0000.0001) // End MONITOR dynamic field statistics
(PID.TID 0000.0001) // =======================================================
 Current Date     19930110  Current Time        61800
 cg2d: Sum(rhs),rhsMax =  -3.49245965480804E-09  1.32131812154103E+05
(PID.TID 0000.0001)                    cg2d_init_res =    1.53952278620412E+05
(PID.TID 0000.0001)                       cg2d_iters =     7
(PID.TID 0000.0001)                         cg2d_res =    6.74472552100031E-11
(PID.TID 0000.0001) // =======================================================
(PID.TID 0000.0001) // Begin MONITOR dynamic field statistics
(PID.TID 0000.0001) // =======================================================
(PID.TID 0000.0001) %MON time_tsnumber                =                     9
(PID.TID 0000.0001) %MON time_secondsf                =   1.0800000000000E+03
(PID.TID 0000.0001) %MON dynstat_eta_max              =   1.8498606753096E+03
(PID.TID 0000.0001) %MON dynstat_eta_min              =  -1.5680267321467E+03
(PID.TID 0000.0001) %MON dynstat_eta_mean             =   3.2134046016392E-15
(PID.TID 0000.0001) %MON dynstat_eta_sd               =   2.1856255480043E+02
(PID.TID 0000.0001) %MON dynstat_eta_del2             =   6.3837350337770E+00
(PID.TID 0000.0001) %MON dynstat_uvel_max             =   7.2741840635327E+01
(PID.TID 0000.0001) %MON dynstat_uvel_min             =  -7.6711071758987E+01
(PID.TID 0000.0001) %MON dynstat_uvel_mean            =   1.6457966885133E+00
(PID.TID 0000.0001) %MON dynstat_uvel_sd              =   1.2694898823368E+01
(PID.TID 0000.0001) %MON dynstat_uvel_del2            =   8.9353876077958E-03
(PID.TID 0000.0001) %MON dynstat_vvel_max             =   7.2623732476239E+01
(PID.TID 0000.0001) %MON dynstat_vvel_min             =  -7.5817148566864E+01
(PID.TID 0000.0001) %MON dynstat_vvel_mean            =   1.8144301136759E+00
(PID.TID 0000.0001) %MON dynstat_vvel_sd              =   1.2643793963500E+01
(PID.TID 0000.0001) %MON dynstat_vvel_del2            =   8.7561480450388E-03
(PID.TID 0000.0001) %MON dynstat_wvel_max             =   9.7898196815039E-01
(PID.TID 0000.0001) %MON dynstat_wvel_min             =  -1.2679247257120E+00
(PID.TID 0000.0001) %MON dynstat_wvel_mean            =   1.1683700084627E-03
(PID.TID 0000.0001) %MON dynstat_wvel_sd              =   1.0356368431786E-01
(PID.TID 0000.0001) %MON dynstat_wvel_del2            =   4.3044882446225E-04
(PID.TID 0000.0001) %MON dynstat_theta_max            =   4.7849438373481E+02
(PID.TID 0000.0001) %MON dynstat_theta_min            =   2.2632585799612E+02
(PID.TID 0000.0001) %MON dynstat_theta_mean           =   3.2573452416091E+02
(PID.TID 0000.0001) %MON dynstat_theta_sd             =   3.8755789880147E+01
(PID.TID 0000.0001) %MON dynstat_theta_del2           =   4.1630059221537E-03
(PID.TID 0000.0001) %MON dynstat_salt_max             =   2.1782642195084E-02
(PID.TID 0000.0001) %MON dynstat_salt_min             =   0.0000000000000E+00
(PID.TID 0000.0001) %MON dynstat_salt_mean            =   2.5374987559828E-03
(PID.TID 0000.0001) %MON dynstat_salt_sd              =   3.9691795474486E-03
(PID.TID 0000.0001) %MON dynstat_salt_del2            =   1.9459248844813E-06
(PID.TID 0000.0001) %MON advcfl_uvel_max              =   5.7695335067892E-02
(PID.TID 0000.0001) %MON advcfl_vvel_max              =   7.5406449602725E-02
(PID.TID 0000.0001) %MON advcfl_wvel_max              =   6.0860386834174E-02
(PID.TID 0000.0001) %MON advcfl_W_hf_max              =   6.1436641589563E-02
(PID.TID 0000.0001) %MON pe_b_mean                    =   2.1989100165998E-01
(PID.TID 0000.0001) %MON ke_max                       =   4.4400369003220E+03
(PID.TID 0000.0001) %MON ke_mean                      =   1.6252778006119E+02
(PID.TID 0000.0001) %MON ke_vol                       =   4.9655425890175E+19
(PID.TID 0000.0001) %MON vort_r_min                   =  -2.7738813106053E-04
(PID.TID 0000.0001) %MON vort_r_max                   =   2.1346268289267E-04
(PID.TID 0000.0001) %MON vort_a_mean                  =  -1.7949729393686E-07
(PID.TID 0000.0001) %MON vort_a_sd                    =   8.8726728414186E-05
(PID.TID 0000.0001) %MON vort_p_mean                  =  -1.8184501810971E-07
(PID.TID 0000.0001) %MON vort_p_sd                    =   9.1462973573401E-05
(PID.TID 0000.0001) %MON surfExpan_theta_mean         =  -1.6743546737090E-01
(PID.TID 0000.0001) %MON surfExpan_salt_mean          =  -2.1454035001855E-05
(PID.TID 0000.0001) %MON surfExpan_Heat_mean          =   6.0636548890643E+00
(PID.TID 0000.0001) %MON En_Budget_T2PE_mean          =  -1.1105624900808E+01
(PID.TID 0000.0001) // =======================================================
(PID.TID 0000.0001) // End MONITOR dynamic field statistics
(PID.TID 0000.0001) // =======================================================
 Current Date     19930110  Current Time        62000
 cg2d: Sum(rhs),rhsMax =  -2.09547579288483E-09  1.52839491946521E+05
(PID.TID 0000.0001)                    cg2d_init_res =    1.58788365314620E+05
(PID.TID 0000.0001)                       cg2d_iters =     7
(PID.TID 0000.0001)                         cg2d_res =    7.10054340108917E-11
(PID.TID 0000.0001) // =======================================================
(PID.TID 0000.0001) // Begin MONITOR dynamic field statistics
(PID.TID 0000.0001) // =======================================================
(PID.TID 0000.0001) %MON time_tsnumber                =                    10
(PID.TID 0000.0001) %MON time_secondsf                =   1.2000000000000E+03
(PID.TID 0000.0001) %MON dynstat_eta_max              =   2.1420618804468E+03
(PID.TID 0000.0001) %MON dynstat_eta_min              =  -1.8021663176974E+03
(PID.TID 0000.0001) %MON dynstat_eta_mean             =  -1.6067023008196E-15
(PID.TID 0000.0001) %MON dynstat_eta_sd               =   2.4362031227386E+02
(PID.TID 0000.0001) %MON dynstat_eta_del2             =   6.7076122890741E+00
(PID.TID 0000.0001) %MON dynstat_uvel_max             =   7.2608257835755E+01
(PID.TID 0000.0001) %MON dynstat_uvel_min             =  -7.6636568024633E+01
(PID.TID 0000.0001) %MON dynstat_uvel_mean            =   1.6411817586898E+00
(PID.TID 0000.0001) %MON dynstat_uvel_sd              =   1.2696763864644E+01
(PID.TID 0000.0001) %MON dynstat_uvel_del2            =   8.9361235221070E-03
(PID.TID 0000.0001) %MON dynstat_vvel_max             =   7.2711167826002E+01
(PID.TID 0000.0001) %MON dynstat_vvel_min             =  -7.5638058683589E+01
(PID.TID 0000.0001) %MON dynstat_vvel_mean            =   1.8188766972460E+00
(PID.TID 0000.0001) %MON dynstat_vvel_sd              =   1.2643847352341E+01
(PID.TID 0000.0001) %MON dynstat_vvel_del2            =   8.7638280384569E-03
(PID.TID 0000.0001) %MON dynstat_wvel_max             =   8.2768965849137E-01
(PID.TID 0000.0001) %MON dynstat_wvel_min             =  -1.2771308197070E+00
(PID.TID 0000.0001) %MON dynstat_wvel_mean            =   1.1631015927907E-03
(PID.TID 0000.0001) %MON dynstat_wvel_sd              =   1.0418233388890E-01
(PID.TID 0000.0001) %MON dynstat_wvel_del2            =   4.2361248197052E-04
(PID.TID 0000.0001) %MON dynstat_theta_max            =   4.7863501740479E+02
(PID.TID 0000.0001) %MON dynstat_theta_min            =   2.2637757008771E+02
(PID.TID 0000.0001) %MON dynstat_theta_mean           =   3.2577104298909E+02
(PID.TID 0000.0001) %MON dynstat_theta_sd             =   3.8803816930734E+01
(PID.TID 0000.0001) %MON dynstat_theta_del2           =   4.1873812726412E-03
(PID.TID 0000.0001) %MON dynstat_salt_max             =   2.1694845136351E-02
(PID.TID 0000.0001) %MON dynstat_salt_min             =   0.0000000000000E+00
(PID.TID 0000.0001) %MON dynstat_salt_mean            =   2.5324407710200E-03
(PID.TID 0000.0001) %MON dynstat_salt_sd              =   3.9595694125277E-03
(PID.TID 0000.0001) %MON dynstat_salt_del2            =   1.9474136479983E-06
(PID.TID 0000.0001) %MON advcfl_uvel_max              =   5.7562115755595E-02
(PID.TID 0000.0001) %MON advcfl_vvel_max              =   7.5099659861655E-02
(PID.TID 0000.0001) %MON advcfl_wvel_max              =   6.1302279345936E-02
(PID.TID 0000.0001) %MON advcfl_W_hf_max              =   6.2033375647786E-02
(PID.TID 0000.0001) %MON pe_b_mean                    =   2.7360997030825E-01
(PID.TID 0000.0001) %MON ke_max                       =   4.4333579814166E+03
(PID.TID 0000.0001) %MON ke_mean                      =   1.6255247673840E+02
(PID.TID 0000.0001) %MON ke_vol                       =   4.9655425890176E+19
(PID.TID 0000.0001) %MON vort_r_min                   =  -2.7072766147404E-04
(PID.TID 0000.0001) %MON vort_r_max                   =   2.0853847723042E-04
(PID.TID 0000.0001) %MON vort_a_mean                  =  -1.7949729393684E-07
(PID.TID 0000.0001) %MON vort_a_sd                    =   8.8722480716826E-05
(PID.TID 0000.0001) %MON vort_p_mean                  =  -1.8184501776774E-07
(PID.TID 0000.0001) %MON vort_p_sd                    =   9.1461091595086E-05
(PID.TID 0000.0001) %MON surfExpan_theta_mean         =  -1.6950695981113E-01
(PID.TID 0000.0001) %MON surfExpan_salt_mean          =  -2.1994766221332E-05
(PID.TID 0000.0001) %MON surfExpan_Heat_mean          =   6.1597126341615E+00
(PID.TID 0000.0001) %MON En_Budget_T2PE_mean          =  -1.0587626283542E+01
(PID.TID 0000.0001) // =======================================================
(PID.TID 0000.0001) // End MONITOR dynamic field statistics
(PID.TID 0000.0001) // =======================================================
 Current Date     19930110  Current Time        62200
 cg2d: Sum(rhs),rhsMax =   2.32830643653870E-10  1.72705945942463E+05
(PID.TID 0000.0001)                    cg2d_init_res =    1.62547918263411E+05
(PID.TID 0000.0001)                       cg2d_iters =     7
(PID.TID 0000.0001)                         cg2d_res =    7.45743115672610E-11
(PID.TID 0000.0001) // =======================================================
(PID.TID 0000.0001) // Begin MONITOR dynamic field statistics
(PID.TID 0000.0001) // =======================================================
(PID.TID 0000.0001) %MON time_tsnumber                =                    11
(PID.TID 0000.0001) %MON time_secondsf                =   1.3200000000000E+03
(PID.TID 0000.0001) %MON dynstat_eta_max              =   2.4230024517712E+03
(PID.TID 0000.0001) %MON dynstat_eta_min              =  -2.0803776975034E+03
(PID.TID 0000.0001) %MON dynstat_eta_mean             =   5.6234580528687E-15
(PID.TID 0000.0001) %MON dynstat_eta_sd               =   2.6925605340312E+02
(PID.TID 0000.0001) %MON dynstat_eta_del2             =   6.9862818058049E+00
(PID.TID 0000.0001) %MON dynstat_uvel_max             =   7.2501476633743E+01
(PID.TID 0000.0001) %MON dynstat_uvel_min             =  -7.6559066841186E+01
(PID.TID 0000.0001) %MON dynstat_uvel_mean            =   1.6365666439122E+00
(PID.TID 0000.0001) %MON dynstat_uvel_sd              =   1.2698599995675E+01
(PID.TID 0000.0001) %MON dynstat_uvel_del2            =   8.9387372926360E-03
(PID.TID 0000.0001) %MON dynstat_vvel_max             =   7.2759884546706E+01
(PID.TID 0000.0001) %MON dynstat_vvel_min             =  -7.5461812808716E+01
(PID.TID 0000.0001) %MON dynstat_vvel_mean            =   1.8233184100993E+00
(PID.TID 0000.0001) %MON dynstat_vvel_sd              =   1.2643841545457E+01
(PID.TID 0000.0001) %MON dynstat_vvel_del2            =   8.7722312215657E-03
(PID.TID 0000.0001) %MON dynstat_wvel_max             =   7.4389943696014E-01
(PID.TID 0000.0001) %MON dynstat_wvel_min             =  -1.2857299965039E+00
(PID.TID 0000.0001) %MON dynstat_wvel_mean            =   1.1404125825842E-03
(PID.TID 0000.0001) %MON dynstat_wvel_sd              =   1.0502552635749E-01
(PID.TID 0000.0001) %MON dynstat_wvel_del2            =   4.2187892903618E-04
(PID.TID 0000.0001) %MON dynstat_theta_max            =   4.7877450142022E+02
(PID.TID 0000.0001) %MON dynstat_theta_min            =   2.2642692180319E+02
(PID.TID 0000.0001) %MON dynstat_theta_mean           =   3.2579616990941E+02
(PID.TID 0000.0001) %MON dynstat_theta_sd             =   3.8852386968413E+01
(PID.TID 0000.0001) %MON dynstat_theta_del2           =   4.1817030196497E-03
(PID.TID 0000.0001) %MON dynstat_salt_max             =   2.1693718344884E-02
(PID.TID 0000.0001) %MON dynstat_salt_min             =   0.0000000000000E+00
(PID.TID 0000.0001) %MON dynstat_salt_mean            =   2.5311138038709E-03
(PID.TID 0000.0001) %MON dynstat_salt_sd              =   3.9564082691560E-03
(PID.TID 0000.0001) %MON dynstat_salt_del2            =   1.9426278573326E-06
(PID.TID 0000.0001) %MON advcfl_uvel_max              =   5.7391159047463E-02
(PID.TID 0000.0001) %MON advcfl_vvel_max              =   7.4872757089092E-02
(PID.TID 0000.0001) %MON advcfl_wvel_max              =   6.1715039832187E-02
(PID.TID 0000.0001) %MON advcfl_W_hf_max              =   6.2613511747716E-02
(PID.TID 0000.0001) %MON pe_b_mean                    =   3.3443353667667E-01
(PID.TID 0000.0001) %MON ke_max                       =   4.4267632868394E+03
(PID.TID 0000.0001) %MON ke_mean                      =   1.6257609971477E+02
(PID.TID 0000.0001) %MON ke_vol                       =   4.9655425890174E+19
(PID.TID 0000.0001) %MON vort_r_min                   =  -2.6495970744641E-04
(PID.TID 0000.0001) %MON vort_r_max                   =   2.0364596701063E-04
(PID.TID 0000.0001) %MON vort_a_mean                  =  -1.7949729393689E-07
(PID.TID 0000.0001) %MON vort_a_sd                    =   8.8718197846187E-05
(PID.TID 0000.0001) %MON vort_p_mean                  =  -1.8184501702835E-07
(PID.TID 0000.0001) %MON vort_p_sd                    =   9.1459415587689E-05
(PID.TID 0000.0001) %MON surfExpan_theta_mean         =  -1.6745147132779E-01
(PID.TID 0000.0001) %MON surfExpan_salt_mean          =  -2.2462336181251E-05
(PID.TID 0000.0001) %MON surfExpan_Heat_mean          =   6.3417407167473E+00
(PID.TID 0000.0001) %MON En_Budget_T2PE_mean          =  -9.8601512356169E+00
(PID.TID 0000.0001) // =======================================================
(PID.TID 0000.0001) // End MONITOR dynamic field statistics
(PID.TID 0000.0001) // =======================================================
 Current Date     19930110  Current Time        62400
 cg2d: Sum(rhs),rhsMax =  -7.45058059692383E-09  1.91325713837142E+05
(PID.TID 0000.0001)                    cg2d_init_res =    1.65066926548139E+05
(PID.TID 0000.0001)                       cg2d_iters =     7
(PID.TID 0000.0001)                         cg2d_res =    7.80086713460130E-11
(PID.TID 0000.0001) // =======================================================
(PID.TID 0000.0001) // Begin MONITOR dynamic field statistics
(PID.TID 0000.0001) // =======================================================
(PID.TID 0000.0001) %MON time_tsnumber                =                    12
(PID.TID 0000.0001) %MON time_secondsf                =   1.4400000000000E+03
(PID.TID 0000.0001) %MON dynstat_eta_max              =   2.6869714349181E+03
(PID.TID 0000.0001) %MON dynstat_eta_min              =  -2.3534651199991E+03
(PID.TID 0000.0001) %MON dynstat_eta_mean             =  -1.6870374158606E-14
(PID.TID 0000.0001) %MON dynstat_eta_sd               =   2.9532940886352E+02
(PID.TID 0000.0001) %MON dynstat_eta_del2             =   7.2215667392612E+00
(PID.TID 0000.0001) %MON dynstat_uvel_max             =   7.2413901557255E+01
(PID.TID 0000.0001) %MON dynstat_uvel_min             =  -7.6478770437693E+01
(PID.TID 0000.0001) %MON dynstat_uvel_mean            =   1.6319624462345E+00
(PID.TID 0000.0001) %MON dynstat_uvel_sd              =   1.2700327188141E+01
(PID.TID 0000.0001) %MON dynstat_uvel_del2            =   8.9423537573627E-03
(PID.TID 0000.0001) %MON dynstat_vvel_max             =   7.2778197516767E+01
(PID.TID 0000.0001) %MON dynstat_vvel_min             =  -7.5287793125404E+01
(PID.TID 0000.0001) %MON dynstat_vvel_mean            =   1.8277449251225E+00
(PID.TID 0000.0001) %MON dynstat_vvel_sd              =   1.2643681484355E+01
(PID.TID 0000.0001) %MON dynstat_vvel_del2            =   8.7803596447900E-03
(PID.TID 0000.0001) %MON dynstat_wvel_max             =   7.5242392151954E-01
(PID.TID 0000.0001) %MON dynstat_wvel_min             =  -1.2940229886684E+00
(PID.TID 0000.0001) %MON dynstat_wvel_mean            =   1.1060145275045E-03
(PID.TID 0000.0001) %MON dynstat_wvel_sd              =   1.0602876644306E-01
(PID.TID 0000.0001) %MON dynstat_wvel_del2            =   4.2386201917663E-04
(PID.TID 0000.0001) %MON dynstat_theta_max            =   4.7891264237690E+02
(PID.TID 0000.0001) %MON dynstat_theta_min            =   2.2647605738551E+02
(PID.TID 0000.0001) %MON dynstat_theta_mean           =   3.2582128988719E+02
(PID.TID 0000.0001) %MON dynstat_theta_sd             =   3.8901383571792E+01
(PID.TID 0000.0001) %MON dynstat_theta_del2           =   4.1764840672472E-03
(PID.TID 0000.0001) %MON dynstat_salt_max             =   2.1692615989813E-02
(PID.TID 0000.0001) %MON dynstat_salt_min             =   0.0000000000000E+00
(PID.TID 0000.0001) %MON dynstat_salt_mean            =   2.5297864546533E-03
(PID.TID 0000.0001) %MON dynstat_salt_sd              =   3.9532779524969E-03
(PID.TID 0000.0001) %MON dynstat_salt_del2            =   1.9395954775984E-06
(PID.TID 0000.0001) %MON advcfl_uvel_max              =   5.7197191411324E-02
(PID.TID 0000.0001) %MON advcfl_vvel_max              =   7.4729159312899E-02
(PID.TID 0000.0001) %MON advcfl_wvel_max              =   6.2113103456081E-02
(PID.TID 0000.0001) %MON advcfl_W_hf_max              =   6.3188943504599E-02
(PID.TID 0000.0001) %MON pe_b_mean                    =   4.0230444628665E-01
(PID.TID 0000.0001) %MON ke_max                       =   4.4203676556107E+03
(PID.TID 0000.0001) %MON ke_mean                      =   1.6259644310196E+02
(PID.TID 0000.0001) %MON ke_vol                       =   4.9655425890175E+19
(PID.TID 0000.0001) %MON vort_r_min                   =  -2.5922798658501E-04
(PID.TID 0000.0001) %MON vort_r_max                   =   1.9878367613688E-04
(PID.TID 0000.0001) %MON vort_a_mean                  =  -1.7949729393706E-07
(PID.TID 0000.0001) %MON vort_a_sd                    =   8.8713843139916E-05
(PID.TID 0000.0001) %MON vort_p_mean                  =  -1.8184501569161E-07
(PID.TID 0000.0001) %MON vort_p_sd                    =   9.1457949899270E-05
(PID.TID 0000.0001) %MON surfExpan_theta_mean         =  -1.6241838171808E-01
(PID.TID 0000.0001) %MON surfExpan_salt_mean          =  -2.2472916929180E-05
(PID.TID 0000.0001) %MON surfExpan_Heat_mean          =   6.5970353095226E+00
(PID.TID 0000.0001) %MON En_Budget_T2PE_mean          =  -8.9847187012373E+00
(PID.TID 0000.0001) // =======================================================
(PID.TID 0000.0001) // End MONITOR dynamic field statistics
(PID.TID 0000.0001) // =======================================================
 Current Date     19930110  Current Time        62600
 cg2d: Sum(rhs),rhsMax =   6.51925802230835E-09  2.08376496142941E+05
(PID.TID 0000.0001)                    cg2d_init_res =    1.66437803920873E+05
(PID.TID 0000.0001)                       cg2d_iters =     7
(PID.TID 0000.0001)                         cg2d_res =    8.11468731023376E-11
(PID.TID 0000.0001) // =======================================================
(PID.TID 0000.0001) // Begin MONITOR dynamic field statistics
(PID.TID 0000.0001) // =======================================================
(PID.TID 0000.0001) %MON time_tsnumber                =                    13
(PID.TID 0000.0001) %MON time_secondsf                =   1.5600000000000E+03
(PID.TID 0000.0001) %MON dynstat_eta_max              =   2.9294013120312E+03
(PID.TID 0000.0001) %MON dynstat_eta_min              =  -2.6162499314366E+03
(PID.TID 0000.0001) %MON dynstat_eta_mean             =   3.2134046016392E-15
(PID.TID 0000.0001) %MON dynstat_eta_sd               =   3.2165646092015E+02
(PID.TID 0000.0001) %MON dynstat_eta_del2             =   7.4084927972847E+00
(PID.TID 0000.0001) %MON dynstat_uvel_max             =   7.2338329654900E+01
(PID.TID 0000.0001) %MON dynstat_uvel_min             =  -7.6396258370185E+01
(PID.TID 0000.0001) %MON dynstat_uvel_mean            =   1.6273719352725E+00
(PID.TID 0000.0001) %MON dynstat_uvel_sd              =   1.2701931224410E+01
(PID.TID 0000.0001) %MON dynstat_uvel_del2            =   8.9470105916844E-03
(PID.TID 0000.0001) %MON dynstat_vvel_max             =   7.2776670141637E+01
(PID.TID 0000.0001) %MON dynstat_vvel_min             =  -7.5115008725561E+01
(PID.TID 0000.0001) %MON dynstat_vvel_mean            =   1.8321475194265E+00
(PID.TID 0000.0001) %MON dynstat_vvel_sd              =   1.2643348274414E+01
(PID.TID 0000.0001) %MON dynstat_vvel_del2            =   8.7882658763295E-03
(PID.TID 0000.0001) %MON dynstat_wvel_max             =   7.5946256037684E-01
(PID.TID 0000.0001) %MON dynstat_wvel_min             =  -1.3019430321020E+00
(PID.TID 0000.0001) %MON dynstat_wvel_mean            =   1.0629189447675E-03
(PID.TID 0000.0001) %MON dynstat_wvel_sd              =   1.0717279041060E-01
(PID.TID 0000.0001) %MON dynstat_wvel_del2            =   4.2850259613764E-04
(PID.TID 0000.0001) %MON dynstat_theta_max            =   4.7904950498974E+02
(PID.TID 0000.0001) %MON dynstat_theta_min            =   2.2652227787097E+02
(PID.TID 0000.0001) %MON dynstat_theta_mean           =   3.2584641165130E+02
(PID.TID 0000.0001) %MON dynstat_theta_sd             =   3.8950808904507E+01
(PID.TID 0000.0001) %MON dynstat_theta_del2           =   4.1719883248785E-03
(PID.TID 0000.0001) %MON dynstat_salt_max             =   2.1691619952239E-02
(PID.TID 0000.0001) %MON dynstat_salt_min             =   0.0000000000000E+00
(PID.TID 0000.0001) %MON dynstat_salt_mean            =   2.5284595616062E-03
(PID.TID 0000.0001) %MON dynstat_salt_sd              =   3.9502257897268E-03
(PID.TID 0000.0001) %MON dynstat_salt_del2            =   1.9374110694044E-06
(PID.TID 0000.0001) %MON advcfl_uvel_max              =   5.6999592927397E-02
(PID.TID 0000.0001) %MON advcfl_vvel_max              =   7.4649006505465E-02
(PID.TID 0000.0001) %MON advcfl_wvel_max              =   6.2493265540898E-02
(PID.TID 0000.0001) %MON advcfl_W_hf_max              =   6.3753657835582E-02
(PID.TID 0000.0001) %MON pe_b_mean                    =   4.7691851134405E-01
(PID.TID 0000.0001) %MON ke_max                       =   4.4142808277390E+03
(PID.TID 0000.0001) %MON ke_mean                      =   1.6261307769987E+02
(PID.TID 0000.0001) %MON ke_vol                       =   4.9655425890175E+19
(PID.TID 0000.0001) %MON vort_r_min                   =  -2.5349371876360E-04
(PID.TID 0000.0001) %MON vort_r_max                   =   1.9395181169367E-04
(PID.TID 0000.0001) %MON vort_a_mean                  =  -1.7949729393676E-07
(PID.TID 0000.0001) %MON vort_a_sd                    =   8.8709455777307E-05
(PID.TID 0000.0001) %MON vort_p_mean                  =  -1.8184501368590E-07
(PID.TID 0000.0001) %MON vort_p_sd                    =   9.1456694257777E-05
(PID.TID 0000.0001) %MON surfExpan_theta_mean         =  -1.5479013686258E-01
(PID.TID 0000.0001) %MON surfExpan_salt_mean          =  -2.2066135182910E-05
(PID.TID 0000.0001) %MON surfExpan_Heat_mean          =   6.9335218027129E+00
(PID.TID 0000.0001) %MON En_Budget_T2PE_mean          =  -8.0005989840186E+00
(PID.TID 0000.0001) // =======================================================
(PID.TID 0000.0001) // End MONITOR dynamic field statistics
(PID.TID 0000.0001) // =======================================================
 Current Date     19930110  Current Time        62800
 cg2d: Sum(rhs),rhsMax =   1.86264514923096E-09  2.23619128416505E+05
(PID.TID 0000.0001)                    cg2d_init_res =    1.66838702856323E+05
(PID.TID 0000.0001)                       cg2d_iters =     7
(PID.TID 0000.0001)                         cg2d_res =    8.37858720728226E-11
(PID.TID 0000.0001) // =======================================================
(PID.TID 0000.0001) // Begin MONITOR dynamic field statistics
(PID.TID 0000.0001) // =======================================================
(PID.TID 0000.0001) %MON time_tsnumber                =                    14
(PID.TID 0000.0001) %MON time_secondsf                =   1.6800000000000E+03
(PID.TID 0000.0001) %MON dynstat_eta_max              =   3.1468722848329E+03
(PID.TID 0000.0001) %MON dynstat_eta_min              =  -2.8641154575501E+03
(PID.TID 0000.0001) %MON dynstat_eta_mean             =  -6.4268092032785E-15
(PID.TID 0000.0001) %MON dynstat_eta_sd               =   3.4804333821914E+02
(PID.TID 0000.0001) %MON dynstat_eta_del2             =   7.5421822315517E+00
(PID.TID 0000.0001) %MON dynstat_uvel_max             =   7.2268288031410E+01
(PID.TID 0000.0001) %MON dynstat_uvel_min             =  -7.6312511897136E+01
(PID.TID 0000.0001) %MON dynstat_uvel_mean            =   1.6227915781591E+00
(PID.TID 0000.0001) %MON dynstat_uvel_sd              =   1.2703392418152E+01
(PID.TID 0000.0001) %MON dynstat_uvel_del2            =   8.9530040857139E-03
(PID.TID 0000.0001) %MON dynstat_vvel_max             =   7.2765794147000E+01
(PID.TID 0000.0001) %MON dynstat_vvel_min             =  -7.4942376464425E+01
(PID.TID 0000.0001) %MON dynstat_vvel_mean            =   1.8365315681288E+00
(PID.TID 0000.0001) %MON dynstat_vvel_sd              =   1.2642814866887E+01
(PID.TID 0000.0001) %MON dynstat_vvel_del2            =   8.7964460337489E-03
(PID.TID 0000.0001) %MON dynstat_wvel_max             =   7.6492593985939E-01
(PID.TID 0000.0001) %MON dynstat_wvel_min             =  -1.3094903597894E+00
(PID.TID 0000.0001) %MON dynstat_wvel_mean            =   1.0137721579651E-03
(PID.TID 0000.0001) %MON dynstat_wvel_sd              =   1.0844037553789E-01
(PID.TID 0000.0001) %MON dynstat_wvel_del2            =   4.3484541519079E-04
(PID.TID 0000.0001) %MON dynstat_theta_max            =   4.7918491881877E+02
(PID.TID 0000.0001) %MON dynstat_theta_min            =   2.2656805164367E+02
(PID.TID 0000.0001) %MON dynstat_theta_mean           =   3.2587152892466E+02
(PID.TID 0000.0001) %MON dynstat_theta_sd             =   3.9000658340827E+01
(PID.TID 0000.0001) %MON dynstat_theta_del2           =   4.1679390893544E-03
(PID.TID 0000.0001) %MON dynstat_salt_max             =   2.1690654419656E-02
(PID.TID 0000.0001) %MON dynstat_salt_min             =   0.0000000000000E+00
(PID.TID 0000.0001) %MON dynstat_salt_mean            =   2.5271322157774E-03
(PID.TID 0000.0001) %MON dynstat_salt_sd              =   3.9472014443993E-03
(PID.TID 0000.0001) %MON dynstat_salt_del2            =   1.9366789725071E-06
(PID.TID 0000.0001) %MON advcfl_uvel_max              =   5.6816239573852E-02
(PID.TID 0000.0001) %MON advcfl_vvel_max              =   7.4605009299820E-02
(PID.TID 0000.0001) %MON advcfl_wvel_max              =   6.2855537269890E-02
(PID.TID 0000.0001) %MON advcfl_W_hf_max              =   6.4304836289440E-02
(PID.TID 0000.0001) %MON pe_b_mean                    =   5.5777672209766E-01
(PID.TID 0000.0001) %MON ke_max                       =   4.4086090342446E+03
(PID.TID 0000.0001) %MON ke_mean                      =   1.6262541821399E+02
(PID.TID 0000.0001) %MON ke_vol                       =   4.9655425890175E+19
(PID.TID 0000.0001) %MON vort_r_min                   =  -2.4771857869597E-04
(PID.TID 0000.0001) %MON vort_r_max                   =   1.8915189997856E-04
(PID.TID 0000.0001) %MON vort_a_mean                  =  -1.7949729393685E-07
(PID.TID 0000.0001) %MON vort_a_sd                    =   8.8705026663444E-05
(PID.TID 0000.0001) %MON vort_p_mean                  =  -1.8184501104264E-07
(PID.TID 0000.0001) %MON vort_p_sd                    =   9.1455649071495E-05
(PID.TID 0000.0001) %MON surfExpan_theta_mean         =  -1.4492630356690E-01
(PID.TID 0000.0001) %MON surfExpan_salt_mean          =  -2.1288093917417E-05
(PID.TID 0000.0001) %MON surfExpan_Heat_mean          =   7.3558656514726E+00
(PID.TID 0000.0001) %MON En_Budget_T2PE_mean          =  -6.9417653999345E+00
(PID.TID 0000.0001) // =======================================================
(PID.TID 0000.0001) // End MONITOR dynamic field statistics
(PID.TID 0000.0001) // =======================================================
 Current Date     19930110  Current Time        63000
 cg2d: Sum(rhs),rhsMax =  -4.65661287307739E-09  2.36900095841147E+05
(PID.TID 0000.0001)                    cg2d_init_res =    1.66484957500547E+05
(PID.TID 0000.0001)                       cg2d_iters =     7
(PID.TID 0000.0001)                         cg2d_res =    8.57800874289776E-11
(PID.TID 0000.0001) // =======================================================
(PID.TID 0000.0001) // Begin MONITOR dynamic field statistics
(PID.TID 0000.0001) // =======================================================
(PID.TID 0000.0001) %MON time_tsnumber                =                    15
(PID.TID 0000.0001) %MON time_secondsf                =   1.8000000000000E+03
(PID.TID 0000.0001) %MON dynstat_eta_max              =   3.3371468225924E+03
(PID.TID 0000.0001) %MON dynstat_eta_min              =  -3.0930561365271E+03
(PID.TID 0000.0001) %MON dynstat_eta_mean             =  -5.4627878227867E-14
(PID.TID 0000.0001) %MON dynstat_eta_sd               =   3.7431114731750E+02
(PID.TID 0000.0001) %MON dynstat_eta_del2             =   7.6206673893555E+00
(PID.TID 0000.0001) %MON dynstat_uvel_max             =   7.2247738096987E+01
(PID.TID 0000.0001) %MON dynstat_uvel_min             =  -7.6228865096987E+01
(PID.TID 0000.0001) %MON dynstat_uvel_mean            =   1.6182233516440E+00
(PID.TID 0000.0001) %MON dynstat_uvel_sd              =   1.2704701174533E+01
(PID.TID 0000.0001) %MON dynstat_uvel_del2            =   8.9604860022186E-03
(PID.TID 0000.0001) %MON dynstat_vvel_max             =   7.2753862705056E+01
(PID.TID 0000.0001) %MON dynstat_vvel_min             =  -7.4768778543413E+01
(PID.TID 0000.0001) %MON dynstat_vvel_mean            =   1.8408922081062E+00
(PID.TID 0000.0001) %MON dynstat_vvel_sd              =   1.2642086496799E+01
(PID.TID 0000.0001) %MON dynstat_vvel_del2            =   8.8054509509206E-03
(PID.TID 0000.0001) %MON dynstat_wvel_max             =   7.6879997737773E-01
(PID.TID 0000.0001) %MON dynstat_wvel_min             =  -1.3166263593243E+00
(PID.TID 0000.0001) %MON dynstat_wvel_mean            =   9.6087324543043E-04
(PID.TID 0000.0001) %MON dynstat_wvel_sd              =   1.0981323356804E-01
(PID.TID 0000.0001) %MON dynstat_wvel_del2            =   4.4214110206979E-04
(PID.TID 0000.0001) %MON dynstat_theta_max            =   4.7931895205253E+02
(PID.TID 0000.0001) %MON dynstat_theta_min            =   2.2661073326745E+02
(PID.TID 0000.0001) %MON dynstat_theta_mean           =   3.2589664910443E+02
(PID.TID 0000.0001) %MON dynstat_theta_sd             =   3.9050932452784E+01
(PID.TID 0000.0001) %MON dynstat_theta_del2           =   4.1642435392939E-03
(PID.TID 0000.0001) %MON dynstat_salt_max             =   2.1682958231603E-02
(PID.TID 0000.0001) %MON dynstat_salt_min             =   0.0000000000000E+00
(PID.TID 0000.0001) %MON dynstat_salt_mean            =   2.5258041921677E-03
(PID.TID 0000.0001) %MON dynstat_salt_sd              =   3.9442159171473E-03
(PID.TID 0000.0001) %MON dynstat_salt_del2            =   1.9367426008219E-06
(PID.TID 0000.0001) %MON advcfl_uvel_max              =   5.6659083964929E-02
(PID.TID 0000.0001) %MON advcfl_vvel_max              =   7.4572856143298E-02
(PID.TID 0000.0001) %MON advcfl_wvel_max              =   6.3198065247564E-02
(PID.TID 0000.0001) %MON advcfl_W_hf_max              =   6.4837783243110E-02
(PID.TID 0000.0001) %MON pe_b_mean                    =   6.4425686576236E-01
(PID.TID 0000.0001) %MON ke_max                       =   4.4034495022105E+03
(PID.TID 0000.0001) %MON ke_mean                      =   1.6263340286175E+02
(PID.TID 0000.0001) %MON ke_vol                       =   4.9655425890175E+19
(PID.TID 0000.0001) %MON vort_r_min                   =  -2.4186551269480E-04
(PID.TID 0000.0001) %MON vort_r_max                   =   1.8886166037503E-04
(PID.TID 0000.0001) %MON vort_a_mean                  =  -1.7949729393674E-07
(PID.TID 0000.0001) %MON vort_a_sd                    =   8.8700578414910E-05
(PID.TID 0000.0001) %MON vort_p_mean                  =  -1.8184500784472E-07
(PID.TID 0000.0001) %MON vort_p_sd                    =   9.1454822858705E-05
(PID.TID 0000.0001) %MON surfExpan_theta_mean         =  -1.3320398318822E-01
(PID.TID 0000.0001) %MON surfExpan_salt_mean          =  -2.0189631218255E-05
(PID.TID 0000.0001) %MON surfExpan_Heat_mean          =   7.8629016230544E+00
(PID.TID 0000.0001) %MON En_Budget_T2PE_mean          =  -5.8375169876168E+00
(PID.TID 0000.0001) // =======================================================
(PID.TID 0000.0001) // End MONITOR dynamic field statistics
(PID.TID 0000.0001) // =======================================================
 Computing Diagnostic #    294  TCANOPY      Counter:       8   Parms: SM      L1      
 Computing Diagnostic #     88  RSURF        Counter:      15   Parms: SM      M1      
(PID.TID 0000.0001) Did not write pickup because writePickupAtEnd = FALSE
(PID.TID 0000.0001)   Seconds in section "ALL                    [THE_MODEL_MAIN]":
(PID.TID 0000.0001)           User time:   107.000000000000
(PID.TID 0000.0001)         System time:  0.000000000000000E+000
(PID.TID 0000.0001)     Wall clock time:   108.067707061768
(PID.TID 0000.0001)          No. starts:           1
(PID.TID 0000.0001)           No. stops:           1
(PID.TID 0000.0001)   Seconds in section "INITIALISE_FIXED       [THE_MODEL_MAIN]":
(PID.TID 0000.0001)           User time:  0.000000000000000E+000
(PID.TID 0000.0001)         System time:  0.000000000000000E+000
(PID.TID 0000.0001)     Wall clock time:  0.302738904953003
(PID.TID 0000.0001)          No. starts:           1
(PID.TID 0000.0001)           No. stops:           1
(PID.TID 0000.0001)   Seconds in section "GRIDALT_INITIALISE  [PACKAGES_INIT_F]":
(PID.TID 0000.0001)           User time:  0.000000000000000E+000
(PID.TID 0000.0001)         System time:  0.000000000000000E+000
(PID.TID 0000.0001)     Wall clock time:  3.419995307922363E-002
(PID.TID 0000.0001)          No. starts:           1
(PID.TID 0000.0001)           No. stops:           1
(PID.TID 0000.0001)   Seconds in section "THE_MAIN_LOOP          [THE_MODEL_MAIN]":
(PID.TID 0000.0001)           User time:   107.000000000000
(PID.TID 0000.0001)         System time:  0.000000000000000E+000
(PID.TID 0000.0001)     Wall clock time:   107.764905929565
(PID.TID 0000.0001)          No. starts:           1
(PID.TID 0000.0001)           No. stops:           1
(PID.TID 0000.0001)   Seconds in section "INITIALISE_VARIA    [THE_MAIN_LOOP]":
(PID.TID 0000.0001)           User time:   1.00000000000000
(PID.TID 0000.0001)         System time:  0.000000000000000E+000
(PID.TID 0000.0001)     Wall clock time:   1.04317903518677
(PID.TID 0000.0001)          No. starts:           1
(PID.TID 0000.0001)           No. stops:           1
(PID.TID 0000.0001)   Seconds in section "GRIDALT_UPDATE  [INITIALISE_VARIA]":
(PID.TID 0000.0001)           User time:  0.000000000000000E+000
(PID.TID 0000.0001)         System time:  0.000000000000000E+000
(PID.TID 0000.0001)     Wall clock time:  4.095792770385742E-003
(PID.TID 0000.0001)          No. starts:           1
(PID.TID 0000.0001)           No. stops:           1
(PID.TID 0000.0001)   Seconds in section "MAIN LOOP           [THE_MAIN_LOOP]":
(PID.TID 0000.0001)           User time:   106.000000000000
(PID.TID 0000.0001)         System time:  0.000000000000000E+000
(PID.TID 0000.0001)     Wall clock time:   106.721694946289
(PID.TID 0000.0001)          No. starts:           1
(PID.TID 0000.0001)           No. stops:           1
(PID.TID 0000.0001)   Seconds in section "FORWARD_STEP        [THE_MAIN_LOOP]":
(PID.TID 0000.0001)           User time:   106.000000000000
(PID.TID 0000.0001)         System time:  0.000000000000000E+000
(PID.TID 0000.0001)     Wall clock time:   106.721542358398
(PID.TID 0000.0001)          No. starts:          15
(PID.TID 0000.0001)           No. stops:          15
(PID.TID 0000.0001)   Seconds in section "UPDATE_R_STAR       [FORWARD_STEP]":
(PID.TID 0000.0001)           User time:  0.000000000000000E+000
(PID.TID 0000.0001)         System time:  0.000000000000000E+000
(PID.TID 0000.0001)     Wall clock time:  0.546644687652588
(PID.TID 0000.0001)          No. starts:          30
(PID.TID 0000.0001)           No. stops:          30
(PID.TID 0000.0001)   Seconds in section "DO_STATEVARS_DIAGS  [FORWARD_STEP]":
(PID.TID 0000.0001)           User time:  0.000000000000000E+000
(PID.TID 0000.0001)         System time:  0.000000000000000E+000
(PID.TID 0000.0001)     Wall clock time:  3.728151321411133E-003
(PID.TID 0000.0001)          No. starts:          45
(PID.TID 0000.0001)           No. stops:          45
(PID.TID 0000.0001)   Seconds in section "LOAD_FIELDS_DRIVER  [FORWARD_STEP]":
(PID.TID 0000.0001)           User time:  0.000000000000000E+000
(PID.TID 0000.0001)         System time:  0.000000000000000E+000
(PID.TID 0000.0001)     Wall clock time:  4.358291625976562E-004
(PID.TID 0000.0001)          No. starts:          15
(PID.TID 0000.0001)           No. stops:          15
(PID.TID 0000.0001)   Seconds in section "EXTERNAL_FLDS_LOAD [LOAD_FLDS_DRIVER]":
(PID.TID 0000.0001)           User time:  0.000000000000000E+000
(PID.TID 0000.0001)         System time:  0.000000000000000E+000
(PID.TID 0000.0001)     Wall clock time:  1.525878906250000E-004
(PID.TID 0000.0001)          No. starts:          15
(PID.TID 0000.0001)           No. stops:          15
(PID.TID 0000.0001)   Seconds in section "DO_ATMOSPHERIC_PHYS [FORWARD_STEP]":
(PID.TID 0000.0001)           User time:   79.0000000000000
(PID.TID 0000.0001)         System time:  0.000000000000000E+000
(PID.TID 0000.0001)     Wall clock time:   78.5815253257751
(PID.TID 0000.0001)          No. starts:          15
(PID.TID 0000.0001)           No. stops:          15
(PID.TID 0000.0001)   Seconds in section "FIZHI          [DO_ATMOSPHERIC_PHYS]":
(PID.TID 0000.0001)           User time:   79.0000000000000
(PID.TID 0000.0001)         System time:  0.000000000000000E+000
(PID.TID 0000.0001)     Wall clock time:   78.5812218189240
(PID.TID 0000.0001)          No. starts:          15
(PID.TID 0000.0001)           No. stops:          15
(PID.TID 0000.0001)   Seconds in section "DO_FIZHI          [FIZHI_WRAPPER]":
(PID.TID 0000.0001)           User time:   73.0000000000000
(PID.TID 0000.0001)         System time:  0.000000000000000E+000
(PID.TID 0000.0001)     Wall clock time:   72.0218493938446
(PID.TID 0000.0001)          No. starts:          15
(PID.TID 0000.0001)           No. stops:          15
(PID.TID 0000.0001)   Seconds in section "PHYS2DYN          [FIZHI_WRAPPER]":
(PID.TID 0000.0001)           User time:   3.00000000000000
(PID.TID 0000.0001)         System time:  0.000000000000000E+000
(PID.TID 0000.0001)     Wall clock time:   3.14124250411987
(PID.TID 0000.0001)          No. starts:          15
(PID.TID 0000.0001)           No. stops:          15
(PID.TID 0000.0001)   Seconds in section "ATOC              [FIZHI_WRAPPER]":
(PID.TID 0000.0001)           User time:  0.000000000000000E+000
(PID.TID 0000.0001)         System time:  0.000000000000000E+000
(PID.TID 0000.0001)     Wall clock time:   1.27058982849121
(PID.TID 0000.0001)          No. starts:          15
(PID.TID 0000.0001)           No. stops:          15
(PID.TID 0000.0001)   Seconds in section "EXCHANGES         [FIZHI_WRAPPER]":
(PID.TID 0000.0001)           User time:   2.00000000000000
(PID.TID 0000.0001)         System time:  0.000000000000000E+000
(PID.TID 0000.0001)     Wall clock time:  0.518060922622681
(PID.TID 0000.0001)          No. starts:          15
(PID.TID 0000.0001)           No. stops:          15
(PID.TID 0000.0001)   Seconds in section "DO_OCEANIC_PHYS     [FORWARD_STEP]":
(PID.TID 0000.0001)           User time:  0.000000000000000E+000
(PID.TID 0000.0001)         System time:  0.000000000000000E+000
(PID.TID 0000.0001)     Wall clock time:  1.542568206787109E-004
(PID.TID 0000.0001)          No. starts:          15
(PID.TID 0000.0001)           No. stops:          15
(PID.TID 0000.0001)   Seconds in section "DYNAMICS            [FORWARD_STEP]":
(PID.TID 0000.0001)           User time:   6.00000000000000
(PID.TID 0000.0001)         System time:  0.000000000000000E+000
(PID.TID 0000.0001)     Wall clock time:   4.56174659729004
(PID.TID 0000.0001)          No. starts:          15
(PID.TID 0000.0001)           No. stops:          15
(PID.TID 0000.0001)   Seconds in section "UPDATE_CG2D         [FORWARD_STEP]":
(PID.TID 0000.0001)           User time:  0.000000000000000E+000
(PID.TID 0000.0001)         System time:  0.000000000000000E+000
(PID.TID 0000.0001)     Wall clock time:  0.126063823699951
(PID.TID 0000.0001)          No. starts:          15
(PID.TID 0000.0001)           No. stops:          15
(PID.TID 0000.0001)   Seconds in section "SOLVE_FOR_PRESSURE  [FORWARD_STEP]":
(PID.TID 0000.0001)           User time:  0.000000000000000E+000
(PID.TID 0000.0001)         System time:  0.000000000000000E+000
(PID.TID 0000.0001)     Wall clock time:  0.334779262542725
(PID.TID 0000.0001)          No. starts:          15
(PID.TID 0000.0001)           No. stops:          15
(PID.TID 0000.0001)   Seconds in section "MOM_CORRECTION_STEP [FORWARD_STEP]":
(PID.TID 0000.0001)           User time:   2.00000000000000
(PID.TID 0000.0001)         System time:  0.000000000000000E+000
(PID.TID 0000.0001)     Wall clock time:   2.98721909523010
(PID.TID 0000.0001)          No. starts:          15
(PID.TID 0000.0001)           No. stops:          15
(PID.TID 0000.0001)   Seconds in section "SHAP_FILT_UV       [MOM_CORR_STEP]":
(PID.TID 0000.0001)           User time:   2.00000000000000
(PID.TID 0000.0001)         System time:  0.000000000000000E+000
(PID.TID 0000.0001)     Wall clock time:   2.37889194488525
(PID.TID 0000.0001)          No. starts:          15
(PID.TID 0000.0001)           No. stops:          15
(PID.TID 0000.0001)   Seconds in section "UPDATE_ETAH         [FORWARD_STEP]":
(PID.TID 0000.0001)           User time:  0.000000000000000E+000
(PID.TID 0000.0001)         System time:  0.000000000000000E+000
(PID.TID 0000.0001)     Wall clock time:  1.570224761962891E-003
(PID.TID 0000.0001)          No. starts:          15
(PID.TID 0000.0001)           No. stops:          15
(PID.TID 0000.0001)   Seconds in section "CALC_R_STAR         [FORWARD_STEP]":
(PID.TID 0000.0001)           User time:  0.000000000000000E+000
(PID.TID 0000.0001)         System time:  0.000000000000000E+000
(PID.TID 0000.0001)     Wall clock time:  2.630972862243652E-002
(PID.TID 0000.0001)          No. starts:          15
(PID.TID 0000.0001)           No. stops:          15
(PID.TID 0000.0001)   Seconds in section "BLOCKING_EXCHANGES  [FORWARD_STEP]":
(PID.TID 0000.0001)           User time:   2.00000000000000
(PID.TID 0000.0001)         System time:  0.000000000000000E+000
(PID.TID 0000.0001)     Wall clock time:  0.646078109741211
(PID.TID 0000.0001)          No. starts:          30
(PID.TID 0000.0001)           No. stops:          30
(PID.TID 0000.0001)   Seconds in section "THERMODYNAMICS      [FORWARD_STEP]":
(PID.TID 0000.0001)           User time:   2.00000000000000
(PID.TID 0000.0001)         System time:  0.000000000000000E+000
(PID.TID 0000.0001)     Wall clock time:   2.84118628501892
(PID.TID 0000.0001)          No. starts:          15
(PID.TID 0000.0001)           No. stops:          15
(PID.TID 0000.0001)   Seconds in section "TRC_CORRECTION_STEP [FORWARD_STEP]":
(PID.TID 0000.0001)           User time:   2.00000000000000
(PID.TID 0000.0001)         System time:  0.000000000000000E+000
(PID.TID 0000.0001)     Wall clock time:   2.24889254570007
(PID.TID 0000.0001)          No. starts:          15
(PID.TID 0000.0001)           No. stops:          15
(PID.TID 0000.0001)   Seconds in section "SHAP_FILT_TS       [TRC_CORR_STEP]":
(PID.TID 0000.0001)           User time:   2.00000000000000
(PID.TID 0000.0001)         System time:  0.000000000000000E+000
(PID.TID 0000.0001)     Wall clock time:   2.15606665611267
(PID.TID 0000.0001)          No. starts:          15
(PID.TID 0000.0001)           No. stops:          15
(PID.TID 0000.0001)   Seconds in section "SALT_FILL       [TRC_CORR_STEP]":
(PID.TID 0000.0001)           User time:  0.000000000000000E+000
(PID.TID 0000.0001)         System time:  0.000000000000000E+000
(PID.TID 0000.0001)     Wall clock time:  1.440286636352539E-002
(PID.TID 0000.0001)          No. starts:          15
(PID.TID 0000.0001)           No. stops:          15
(PID.TID 0000.0001)   Seconds in section "FIZHI               [FORWARD_STEP]":
(PID.TID 0000.0001)           User time:   11.0000000000000
(PID.TID 0000.0001)         System time:  0.000000000000000E+000
(PID.TID 0000.0001)     Wall clock time:   11.1043925285339
(PID.TID 0000.0001)          No. starts:          15
(PID.TID 0000.0001)           No. stops:          15
(PID.TID 0000.0001)   Seconds in section "PHYS2DYN          [STEP_FIZHI_CORR]":
(PID.TID 0000.0001)           User time:   4.00000000000000
(PID.TID 0000.0001)         System time:  0.000000000000000E+000
(PID.TID 0000.0001)     Wall clock time:   3.04045724868774
(PID.TID 0000.0001)          No. starts:          15
(PID.TID 0000.0001)           No. stops:          15
(PID.TID 0000.0001)   Seconds in section "ATOC              [STEP_FIZHI_CORR]":
(PID.TID 0000.0001)           User time:  0.000000000000000E+000
(PID.TID 0000.0001)         System time:  0.000000000000000E+000
(PID.TID 0000.0001)     Wall clock time:   1.26566338539124
(PID.TID 0000.0001)          No. starts:          15
(PID.TID 0000.0001)           No. stops:          15
(PID.TID 0000.0001)   Seconds in section "CTOA              [STEP_FIZHI_CORR]":
(PID.TID 0000.0001)           User time:   3.00000000000000
(PID.TID 0000.0001)         System time:  0.000000000000000E+000
(PID.TID 0000.0001)     Wall clock time:   1.22833538055420
(PID.TID 0000.0001)          No. starts:          15
(PID.TID 0000.0001)           No. stops:          15
(PID.TID 0000.0001)   Seconds in section "DYN2PHYS          [STEP_FIZHI_CORR]":
(PID.TID 0000.0001)           User time:   3.00000000000000
(PID.TID 0000.0001)         System time:  0.000000000000000E+000
(PID.TID 0000.0001)     Wall clock time:   3.98557853698730
(PID.TID 0000.0001)          No. starts:          15
(PID.TID 0000.0001)           No. stops:          15
(PID.TID 0000.0001)   Seconds in section "DO_STATEVARS_TAVE   [FORWARD_STEP]":
(PID.TID 0000.0001)           User time:  0.000000000000000E+000
(PID.TID 0000.0001)         System time:  0.000000000000000E+000
(PID.TID 0000.0001)     Wall clock time:  1.549720764160156E-004
(PID.TID 0000.0001)          No. starts:          15
(PID.TID 0000.0001)           No. stops:          15
(PID.TID 0000.0001)   Seconds in section "MONITOR             [FORWARD_STEP]":
(PID.TID 0000.0001)           User time:   2.00000000000000
(PID.TID 0000.0001)         System time:  0.000000000000000E+000
(PID.TID 0000.0001)     Wall clock time:   2.66390705108643
(PID.TID 0000.0001)          No. starts:          15
(PID.TID 0000.0001)           No. stops:          15
(PID.TID 0000.0001)   Seconds in section "DO_THE_MODEL_IO     [FORWARD_STEP]":
(PID.TID 0000.0001)           User time:  0.000000000000000E+000
(PID.TID 0000.0001)         System time:  0.000000000000000E+000
(PID.TID 0000.0001)     Wall clock time:  2.571105957031250E-003
(PID.TID 0000.0001)          No. starts:          15
(PID.TID 0000.0001)           No. stops:          15
(PID.TID 0000.0001)   Seconds in section "DO_WRITE_PICKUP     [FORWARD_STEP]":
(PID.TID 0000.0001)           User time:  0.000000000000000E+000
(PID.TID 0000.0001)         System time:  0.000000000000000E+000
(PID.TID 0000.0001)     Wall clock time:  1.640319824218750E-004
(PID.TID 0000.0001)          No. starts:          15
(PID.TID 0000.0001)           No. stops:          15
(PID.TID 0000.0001) // ======================================================
(PID.TID 0000.0001) // Tile <-> Tile communication statistics
(PID.TID 0000.0001) // ======================================================
(PID.TID 0000.0001) // o Tile number: 000001
(PID.TID 0000.0001) //         No. X exchanges =              0
(PID.TID 0000.0001) //            Max. X spins =              0
(PID.TID 0000.0001) //            Min. X spins =     1000000000
(PID.TID 0000.0001) //          Total. X spins =              0
(PID.TID 0000.0001) //            Avg. X spins =       0.00E+00
(PID.TID 0000.0001) //         No. Y exchanges =              0
(PID.TID 0000.0001) //            Max. Y spins =              0
(PID.TID 0000.0001) //            Min. Y spins =     1000000000
(PID.TID 0000.0001) //          Total. Y spins =              0
(PID.TID 0000.0001) //            Avg. Y spins =       0.00E+00
(PID.TID 0000.0001) // o Tile number: 000002
(PID.TID 0000.0001) //         No. X exchanges =              0
(PID.TID 0000.0001) //            Max. X spins =              0
(PID.TID 0000.0001) //            Min. X spins =     1000000000
(PID.TID 0000.0001) //          Total. X spins =              0
(PID.TID 0000.0001) //            Avg. X spins =       0.00E+00
(PID.TID 0000.0001) //         No. Y exchanges =              0
(PID.TID 0000.0001) //            Max. Y spins =              0
(PID.TID 0000.0001) //            Min. Y spins =     1000000000
(PID.TID 0000.0001) //          Total. Y spins =              0
(PID.TID 0000.0001) //            Avg. Y spins =       0.00E+00
(PID.TID 0000.0001) // o Tile number: 000003
(PID.TID 0000.0001) //         No. X exchanges =              0
(PID.TID 0000.0001) //            Max. X spins =              0
(PID.TID 0000.0001) //            Min. X spins =     1000000000
(PID.TID 0000.0001) //          Total. X spins =              0
(PID.TID 0000.0001) //            Avg. X spins =       0.00E+00
(PID.TID 0000.0001) //         No. Y exchanges =              0
(PID.TID 0000.0001) //            Max. Y spins =              0
(PID.TID 0000.0001) //            Min. Y spins =     1000000000
(PID.TID 0000.0001) //          Total. Y spins =              0
(PID.TID 0000.0001) //            Avg. Y spins =       0.00E+00
(PID.TID 0000.0001) // o Tile number: 000004
(PID.TID 0000.0001) //         No. X exchanges =              0
(PID.TID 0000.0001) //            Max. X spins =              0
(PID.TID 0000.0001) //            Min. X spins =     1000000000
(PID.TID 0000.0001) //          Total. X spins =              0
(PID.TID 0000.0001) //            Avg. X spins =       0.00E+00
(PID.TID 0000.0001) //         No. Y exchanges =              0
(PID.TID 0000.0001) //            Max. Y spins =              0
(PID.TID 0000.0001) //            Min. Y spins =     1000000000
(PID.TID 0000.0001) //          Total. Y spins =              0
(PID.TID 0000.0001) //            Avg. Y spins =       0.00E+00
(PID.TID 0000.0001) // o Tile number: 000005
(PID.TID 0000.0001) //         No. X exchanges =              0
(PID.TID 0000.0001) //            Max. X spins =              0
(PID.TID 0000.0001) //            Min. X spins =     1000000000
(PID.TID 0000.0001) //          Total. X spins =              0
(PID.TID 0000.0001) //            Avg. X spins =       0.00E+00
(PID.TID 0000.0001) //         No. Y exchanges =              0
(PID.TID 0000.0001) //            Max. Y spins =              0
(PID.TID 0000.0001) //            Min. Y spins =     1000000000
(PID.TID 0000.0001) //          Total. Y spins =              0
(PID.TID 0000.0001) //            Avg. Y spins =       0.00E+00
(PID.TID 0000.0001) // o Tile number: 000006
(PID.TID 0000.0001) //         No. X exchanges =              0
(PID.TID 0000.0001) //            Max. X spins =              0
(PID.TID 0000.0001) //            Min. X spins =     1000000000
(PID.TID 0000.0001) //          Total. X spins =              0
(PID.TID 0000.0001) //            Avg. X spins =       0.00E+00
(PID.TID 0000.0001) //         No. Y exchanges =              0
(PID.TID 0000.0001) //            Max. Y spins =              0
(PID.TID 0000.0001) //            Min. Y spins =     1000000000
(PID.TID 0000.0001) //          Total. Y spins =              0
(PID.TID 0000.0001) //            Avg. Y spins =       0.00E+00
(PID.TID 0000.0001) // o Thread number: 000001
(PID.TID 0000.0001) //            No. barriers =           5378
(PID.TID 0000.0001) //      Max. barrier spins =              1
(PID.TID 0000.0001) //      Min. barrier spins =              1
(PID.TID 0000.0001) //     Total barrier spins =           5378
(PID.TID 0000.0001) //      Avg. barrier spins =       1.00E+00
PROGRAM MAIN: Execution ended Normally
