(PID.TID 0000.0001) 
(PID.TID 0000.0001) // ======================================================
(PID.TID 0000.0001) //                      MITgcm UV
(PID.TID 0000.0001) //                      =========
(PID.TID 0000.0001) // ======================================================
(PID.TID 0000.0001) // execution environment starting up...
(PID.TID 0000.0001) // Run starting Wed Apr  1 14:19:48 1998
(PID.TID 0000.0001) // on melville.lcs.mit.edu
(PID.TID 0000.0001) // account cnh
(PID.TID 0000.0001) // MITgcm UV Release: $Name:  $
(PID.TID 0000.0001) 
(PID.TID 0000.0001) // =======================================================
(PID.TID 0000.0001) // Execution Environment parameter file "eedata"
(PID.TID 0000.0001) // =======================================================
(PID.TID 0000.0001) ># Example "eedata" file
(PID.TID 0000.0001) ># Lines beginning "#" are comments
(PID.TID 0000.0001) ># nTx - No. threads per process in X
(PID.TID 0000.0001) ># nTy - No. threads per process in Y
(PID.TID 0000.0001) > &EEPARMS
(PID.TID 0000.0001) > nTx=1,nTy=1,
(PID.TID 0000.0001) > &
(PID.TID 0000.0001) ># Note: Some systems use & as the
(PID.TID 0000.0001) ># namelist terminator. Other systems
(PID.TID 0000.0001) ># use a / character (as shown here).
(PID.TID 0000.0001) 
(PID.TID 0000.0001) // =======================================================
(PID.TID 0000.0001) // Computational Grid Specification ( see files "SIZE.h" )
(PID.TID 0000.0001) //                                  ( and "eedata"       )
(PID.TID 0000.0001) // =======================================================
(PID.TID 0000.0001)      nPx =    1 ; /* No. processes in X */
(PID.TID 0000.0001)      nPy =    1 ; /* No. processes in Y */
(PID.TID 0000.0001)      nSx =    2 ; /* No. tiles in X per process */
(PID.TID 0000.0001)      nSy =    2 ; /* No. tiles in Y per process */
(PID.TID 0000.0001)      sNx =   30 ; /* Tile size in X */
(PID.TID 0000.0001)      sNy =   30 ; /* Tile size in Y */
(PID.TID 0000.0001)      OLx =    2 ; /* Tile overlap distance in X */
(PID.TID 0000.0001)      OLy =    2 ; /* Tile overlap distance in Y */
(PID.TID 0000.0001)      nTx =    1 ; /* No. threads in X per process */
(PID.TID 0000.0001)      nTy =    1 ; /* No. threads in Y per process */
(PID.TID 0000.0001)       Nr =    4 ; /* No. levels in the vertical   */
(PID.TID 0000.0001)       nX =   60 ; /* Total domain size in X ( = nPx*nSx*sNx ) */
(PID.TID 0000.0001)       nY =   60 ; /* Total domain size in Y ( = nPy*nSy*sNy ) */
(PID.TID 0000.0001)   nTiles =    4 ; /* Total no. tiles per process ( = nSx*nSy ) */
(PID.TID 0000.0001)   nProcs =    1 ; /* Total no. processes ( = nPx*nPy ) */
(PID.TID 0000.0001) nThreads =    1 ; /* Total no. threads per process ( = nTx*nTy ) */
(PID.TID 0000.0001) usingMPI =    F ; /* Flag used to control whether MPI is in use */
(PID.TID 0000.0001)                   /*  note: To execute a program with MPI calls */
(PID.TID 0000.0001)                   /*  it must be launched appropriately e.g     */
(PID.TID 0000.0001)                   /*  "mpirun -np 64 ......"                    */
(PID.TID 0000.0001) 
(PID.TID 0000.0001) // ======================================================
(PID.TID 0000.0001) // Mapping of tiles to threads
(PID.TID 0000.0001) // ======================================================
(PID.TID 0000.0001) // -o- Thread   1, tiles (   1:   2,   1:   2)
(PID.TID 0000.0001) 
(PID.TID 0000.0001) // ======================================================
(PID.TID 0000.0001) // Tile <-> Tile connectvity table
(PID.TID 0000.0001) // ======================================================
(PID.TID 0000.0001) // Tile number: 000001 (process no. = 000001)
(PID.TID 0000.0001) //        WEST: Tile = 000002, Process = 000001, Comm = put
(PID.TID 0000.0001) //                bi = 000002, bj = 000001
(PID.TID 0000.0001) //        EAST: Tile = 000002, Process = 000001, Comm = put
(PID.TID 0000.0001) //                bi = 000002, bj = 000001
(PID.TID 0000.0001) //       SOUTH: Tile = 000003, Process = 000001, Comm = put
(PID.TID 0000.0001) //                bi = 000001, bj = 000002
(PID.TID 0000.0001) //       NORTH: Tile = 000003, Process = 000001, Comm = put
(PID.TID 0000.0001) //                bi = 000001, bj = 000002
(PID.TID 0000.0001) // Tile number: 000002 (process no. = 000001)
(PID.TID 0000.0001) //        WEST: Tile = 000001, Process = 000001, Comm = put
(PID.TID 0000.0001) //                bi = 000001, bj = 000001
(PID.TID 0000.0001) //        EAST: Tile = 000001, Process = 000001, Comm = put
(PID.TID 0000.0001) //                bi = 000001, bj = 000001
(PID.TID 0000.0001) //       SOUTH: Tile = 000004, Process = 000001, Comm = put
(PID.TID 0000.0001) //                bi = 000002, bj = 000002
(PID.TID 0000.0001) //       NORTH: Tile = 000004, Process = 000001, Comm = put
(PID.TID 0000.0001) //                bi = 000002, bj = 000002
(PID.TID 0000.0001) // Tile number: 000003 (process no. = 000001)
(PID.TID 0000.0001) //        WEST: Tile = 000004, Process = 000001, Comm = put
(PID.TID 0000.0001) //                bi = 000002, bj = 000002
(PID.TID 0000.0001) //        EAST: Tile = 000004, Process = 000001, Comm = put
(PID.TID 0000.0001) //                bi = 000002, bj = 000002
(PID.TID 0000.0001) //       SOUTH: Tile = 000001, Process = 000001, Comm = put
(PID.TID 0000.0001) //                bi = 000001, bj = 000001
(PID.TID 0000.0001) //       NORTH: Tile = 000001, Process = 000001, Comm = put
(PID.TID 0000.0001) //                bi = 000001, bj = 000001
(PID.TID 0000.0001) // Tile number: 000004 (process no. = 000001)
(PID.TID 0000.0001) //        WEST: Tile = 000003, Process = 000001, Comm = put
(PID.TID 0000.0001) //                bi = 000001, bj = 000002
(PID.TID 0000.0001) //        EAST: Tile = 000003, Process = 000001, Comm = put
(PID.TID 0000.0001) //                bi = 000001, bj = 000002
(PID.TID 0000.0001) //       SOUTH: Tile = 000002, Process = 000001, Comm = put
(PID.TID 0000.0001) //                bi = 000002, bj = 000001
(PID.TID 0000.0001) //       NORTH: Tile = 000002, Process = 000001, Comm = put
(PID.TID 0000.0001) //                bi = 000002, bj = 000001
(PID.TID 0000.0001) 
(PID.TID 0000.0001) // =======================================================
(PID.TID 0000.0001) // Model parameter file "data"
(PID.TID 0000.0001) // =======================================================
(PID.TID 0000.0001) ># Model parameters
(PID.TID 0000.0001) ># Continuous equation parameters
(PID.TID 0000.0001) > &PARM01
(PID.TID 0000.0001) > tRef=20.,10.,8.,6.,
(PID.TID 0000.0001) > sRef=10.,10.,10.,10.,
(PID.TID 0000.0001) > viscAz=1.E-2,
(PID.TID 0000.0001) > viscAh=4.E2,
(PID.TID 0000.0001) > no_slip_sides=.FALSE.,
(PID.TID 0000.0001) > no_slip_bottom=.TRUE.,
(PID.TID 0000.0001) > diffKhT=4.E2,
(PID.TID 0000.0001) > diffKzT=1.E-2,
(PID.TID 0000.0001) > beta=1.E-11,
(PID.TID 0000.0001) > tAlpha=2.E-4,
(PID.TID 0000.0001) > sBeta =0.,
(PID.TID 0000.0001) > gravity=9.81,
(PID.TID 0000.0001) > rigidLid=.FALSE.,
(PID.TID 0000.0001) > implicitFreeSurface=.TRUE.,
(PID.TID 0000.0001) > eosType='LINEAR',
(PID.TID 0000.0001) > readBinaryPrec=64,
(PID.TID 0000.0001) > &
(PID.TID 0000.0001) ># Elliptic solver parameters
(PID.TID 0000.0001) > &PARM02
(PID.TID 0000.0001) > cg2dMaxIters=1000,
(PID.TID 0000.0001) > cg2dTargetResidual=1.E-13,
(PID.TID 0000.0001) > &
(PID.TID 0000.0001) ># Time stepping parameters
(PID.TID 0000.0001) > &PARM03
(PID.TID 0000.0001) > startTime=0.,
(PID.TID 0000.0001) > endTime=12000.,
(PID.TID 0000.0001) > deltaTmom=1200.0,
(PID.TID 0000.0001) > deltaTtracer=1200.0,
(PID.TID 0000.0001) > abEps=0.1,
(PID.TID 0000.0001) > pChkptFreq=17000.0,
(PID.TID 0000.0001) > chkptFreq=0.0,
(PID.TID 0000.0001) > dumpFreq=2592000.0,
(PID.TID 0000.0001) > monitorFreq=1.,
(PID.TID 0000.0001) > &
(PID.TID 0000.0001) ># Gridding parameters
(PID.TID 0000.0001) > &PARM04
(PID.TID 0000.0001) > usingCartesianGrid=.FALSE.,
(PID.TID 0000.0001) > usingSphericalPolarGrid=.TRUE.,
(PID.TID 0000.0001) > phiMin=0.,
(PID.TID 0000.0001) > delX=60*1.,
(PID.TID 0000.0001) > delY=60*1.,
(PID.TID 0000.0001) > delZ=500.,500.,500.,500.,
(PID.TID 0000.0001) > &
(PID.TID 0000.0001) > &PARM05
(PID.TID 0000.0001) > bathyFile='topog.box',
(PID.TID 0000.0001) > hydrogThetaFile=,
(PID.TID 0000.0001) > hydrogSaltFile=,
(PID.TID 0000.0001) > zonalWindFile='windx.sin_y',
(PID.TID 0000.0001) > meridWindFile=,
(PID.TID 0000.0001) > &
(PID.TID 0000.0001) 
(PID.TID 0000.0001) S/R INI_PARMS ; read PARM01 : OK
(PID.TID 0000.0001) S/R INI_PARMS ; read PARM02 : OK
(PID.TID 0000.0001) S/R INI_PARMS ; read PARM03 : OK
(PID.TID 0000.0001) S/R INI_PARMS ; read PARM04 : OK
(PID.TID 0000.0001) S/R INI_PARMS ; read PARM05 : OK
(PID.TID 0000.0001) %MON XC_max                       =   5.9500000000000E+01
(PID.TID 0000.0001) %MON XC_min                       =   5.0000000000000E-01
(PID.TID 0000.0001) %MON XC_mean                      =   3.0000000000000E+01
(PID.TID 0000.0001) %MON XC_sd                        =   1.7318102282487E+01
(PID.TID 0000.0001) %MON XG_max                       =   5.9000000000000E+01
(PID.TID 0000.0001) %MON XG_min                       =   1.0000000000000E+00
(PID.TID 0000.0001) %MON XG_mean                      =   3.0000000000000E+01
(PID.TID 0000.0001) %MON XG_sd                        =   1.7029386365926E+01
(PID.TID 0000.0001) %MON DXC_max                      =   1.1117324005452E+05
(PID.TID 0000.0001) %MON DXC_min                      =   5.6426832823201E+04
(PID.TID 0000.0001) %MON DXC_mean                     =   9.1944197355844E+04
(PID.TID 0000.0001) %MON DXC_sd                       =   1.6796072797028E+04
(PID.TID 0000.0001) %MON DXF_max                      =   1.1117324005452E+05
(PID.TID 0000.0001) %MON DXF_min                      =   5.6426832823201E+04
(PID.TID 0000.0001) %MON DXF_mean                     =   9.1944197355844E+04
(PID.TID 0000.0001) %MON DXF_sd                       =   1.6796072797028E+04
(PID.TID 0000.0001) %MON DXG_max                      =   1.1117747335204E+05
(PID.TID 0000.0001) %MON DXG_min                      =   5.7260631848598E+04
(PID.TID 0000.0001) %MON DXG_mean                     =   9.2403935874841E+04
(PID.TID 0000.0001) %MON DXG_sd                       =   1.6559576692339E+04
(PID.TID 0000.0001) %MON DXV_max                      =   1.1117747335204E+05
(PID.TID 0000.0001) %MON DXV_min                      =   5.7260631848598E+04
(PID.TID 0000.0001) %MON DXV_mean                     =   9.2403935874841E+04
(PID.TID 0000.0001) %MON DXV_sd                       =   1.6559576692339E+04
(PID.TID 0000.0001) %MON YC_max                       =   5.9500000000000E+01
(PID.TID 0000.0001) %MON YC_min                       =   5.0000000000000E-01
(PID.TID 0000.0001) %MON YC_mean                      =   3.0000000000000E+01
(PID.TID 0000.0001) %MON YC_sd                        =   1.7318102282487E+01
(PID.TID 0000.0001) %MON YG_max                       =   5.9000000000000E+01
(PID.TID 0000.0001) %MON YG_min                       =   1.0000000000000E+00
(PID.TID 0000.0001) %MON YG_mean                      =   3.0000000000000E+01
(PID.TID 0000.0001) %MON YG_sd                        =   1.7029386365926E+01
(PID.TID 0000.0001) %MON DYC_max                      =   1.1117747335204E+05
(PID.TID 0000.0001) %MON DYC_min                      =   1.1117747335204E+05
(PID.TID 0000.0001) %MON DYC_mean                     =   1.1117747335203E+05
(PID.TID 0000.0001) %MON DYC_sd                       =   4.9622030928731E-09
(PID.TID 0000.0001) %MON DYF_max                      =   1.1117747335204E+05
(PID.TID 0000.0001) %MON DYF_min                      =   1.1117747335204E+05
(PID.TID 0000.0001) %MON DYF_mean                     =   1.1117747335203E+05
(PID.TID 0000.0001) %MON DYF_sd                       =   4.9622030928731E-09
(PID.TID 0000.0001) %MON DYG_max                      =   1.1117747335204E+05
(PID.TID 0000.0001) %MON DYG_min                      =   1.1117747335204E+05
(PID.TID 0000.0001) %MON DYG_mean                     =   1.1117747335203E+05
(PID.TID 0000.0001) %MON DYG_sd                       =   4.9622030928731E-09
(PID.TID 0000.0001) %MON DYU_max                      =   1.1117747335204E+05
(PID.TID 0000.0001) %MON DYU_min                      =   1.1117747335204E+05
(PID.TID 0000.0001) %MON DYU_mean                     =   1.1117747335203E+05
(PID.TID 0000.0001) %MON DYU_sd                       =   4.9622030928731E-09
(PID.TID 0000.0001) %MON RA_max                       =   1.2359803056756E+10
(PID.TID 0000.0001) %MON RA_min                       =   6.2733130784821E+09
(PID.TID 0000.0001) %MON RA_mean                      =   1.0221993808694E+10
(PID.TID 0000.0001) %MON RA_sd                        =   1.8673212348259E+09
(PID.TID 0000.0001) %MON RAW_max                      =   1.2359803056756E+10
(PID.TID 0000.0001) %MON RAW_min                      =   6.2733130784821E+09
(PID.TID 0000.0001) %MON RAW_mean                     =   1.0221993808694E+10
(PID.TID 0000.0001) %MON RAW_sd                       =   1.8673212348259E+09
(PID.TID 0000.0001) %MON RAS_max                      =   1.2360273698104E+10
(PID.TID 0000.0001) %MON RAS_min                      =   6.3660115708331E+09
(PID.TID 0000.0001) %MON RAS_mean                     =   1.0273105726900E+10
(PID.TID 0000.0001) %MON RAS_sd                       =   1.8410285291693E+09
(PID.TID 0000.0001) %MON RAZ_max                      =   1.2360273698104E+10
(PID.TID 0000.0001) %MON RAZ_min                      =   6.3660115708331E+09
(PID.TID 0000.0001) %MON RAZ_mean                     =   1.0273105726900E+10
(PID.TID 0000.0001) %MON RAZ_sd                       =   1.8410285291693E+09
(PID.TID 0000.0001)  MDSREADFIELD: opening global file: topog.box
(PID.TID 0000.0001) // =======================================================
(PID.TID 0000.0001) // Field Model R_low (ini_masks_etc) at iteration          1
(PID.TID 0000.0001) // CMIN =         -2.000000000000000E+03
(PID.TID 0000.0001) // CMAX =         -2.000000000000000E+03
(PID.TID 0000.0001) // CINT =          0.000000000000000E+00
(PID.TID 0000.0001) // SYMBOLS (CMIN->CMAX): -abcdefghijklmnopqrstuvwxyz+
(PID.TID 0000.0001) //                  0.0: .
(PID.TID 0000.0001) // RANGE I (Lo:Hi:Step):(  -1:  62:   1)
(PID.TID 0000.0001) // RANGE J (Lo:Hi:Step):(  62:  -1:  -1)
(PID.TID 0000.0001) // RANGE K (Lo:Hi:Step):(   1:   1:   1)
(PID.TID 0000.0001) // =======================================================
(PID.TID 0000.0001) K =   1
(PID.TID 0000.0001) //                I=8       I=18      I=28      I=34      I=44      I=54
(PID.TID 0000.0001) // |--J--|*01234567|901234567|901234567|901290123|567890123|567890123|56789012
(PID.TID 0000.0001) //     62 -.---------------------------------------------------------------.--
(PID.TID 0000.0001) //     61 -.---------------------------------------------------------------.--
(PID.TID 0000.0001) //     60 ....................................................................
(PID.TID 0000.0001) //     59 -.---------------------------------------------------------------.--
(PID.TID 0000.0001) //     58 -.---------------------------------------------------------------.--
(PID.TID 0000.0001) //     57 -.---------------------------------------------------------------.--
(PID.TID 0000.0001) //     56 -.---------------------------------------------------------------.--
(PID.TID 0000.0001) //     55 -.---------------------------------------------------------------.--
(PID.TID 0000.0001) //     54 -.---------------------------------------------------------------.--
(PID.TID 0000.0001) //     53 -.---------------------------------------------------------------.--
(PID.TID 0000.0001) //     52 -.---------------------------------------------------------------.--
(PID.TID 0000.0001) //     51 -.---------------------------------------------------------------.--
(PID.TID 0000.0001) //     50 -.---------------------------------------------------------------.--
(PID.TID 0000.0001) //     49 -.---------------------------------------------------------------.--
(PID.TID 0000.0001) //     48 -.---------------------------------------------------------------.--
(PID.TID 0000.0001) //     47 -.---------------------------------------------------------------.--
(PID.TID 0000.0001) //     46 -.---------------------------------------------------------------.--
(PID.TID 0000.0001) //     45 -.---------------------------------------------------------------.--
(PID.TID 0000.0001) //     44 -.---------------------------------------------------------------.--
(PID.TID 0000.0001) //     43 -.---------------------------------------------------------------.--
(PID.TID 0000.0001) //     42 -.---------------------------------------------------------------.--
(PID.TID 0000.0001) //     41 -.---------------------------------------------------------------.--
(PID.TID 0000.0001) //     40 -.---------------------------------------------------------------.--
(PID.TID 0000.0001) //     39 -.---------------------------------------------------------------.--
(PID.TID 0000.0001) //     38 -.---------------------------------------------------------------.--
(PID.TID 0000.0001) //     37 -.---------------------------------------------------------------.--
(PID.TID 0000.0001) //     36 -.---------------------------------------------------------------.--
(PID.TID 0000.0001) //     35 -.---------------------------------------------------------------.--
(PID.TID 0000.0001) //     34 -.---------------------------------------------------------------.--
(PID.TID 0000.0001) //     33 -.---------------------------------------------------------------.--
(PID.TID 0000.0001) //     32 -.---------------------------------------------------------------.--
(PID.TID 0000.0001) //     31 -.---------------------------------------------------------------.--
(PID.TID 0000.0001) //     30 -.---------------------------------------------------------------.--
(PID.TID 0000.0001) //     29 -.---------------------------------------------------------------.--
(PID.TID 0000.0001) //     32 -.---------------------------------------------------------------.--
(PID.TID 0000.0001) //     31 -.---------------------------------------------------------------.--
(PID.TID 0000.0001) //     30 -.---------------------------------------------------------------.--
(PID.TID 0000.0001) //     29 -.---------------------------------------------------------------.--
(PID.TID 0000.0001) //     28 -.---------------------------------------------------------------.--
(PID.TID 0000.0001) //     27 -.---------------------------------------------------------------.--
(PID.TID 0000.0001) //     26 -.---------------------------------------------------------------.--
(PID.TID 0000.0001) //     25 -.---------------------------------------------------------------.--
(PID.TID 0000.0001) //     24 -.---------------------------------------------------------------.--
(PID.TID 0000.0001) //     23 -.---------------------------------------------------------------.--
(PID.TID 0000.0001) //     22 -.---------------------------------------------------------------.--
(PID.TID 0000.0001) //     21 -.---------------------------------------------------------------.--
(PID.TID 0000.0001) //     20 -.---------------------------------------------------------------.--
(PID.TID 0000.0001) //     19 -.---------------------------------------------------------------.--
(PID.TID 0000.0001) //     18 -.---------------------------------------------------------------.--
(PID.TID 0000.0001) //     17 -.---------------------------------------------------------------.--
(PID.TID 0000.0001) //     16 -.---------------------------------------------------------------.--
(PID.TID 0000.0001) //     15 -.---------------------------------------------------------------.--
(PID.TID 0000.0001) //     14 -.---------------------------------------------------------------.--
(PID.TID 0000.0001) //     13 -.---------------------------------------------------------------.--
(PID.TID 0000.0001) //     12 -.---------------------------------------------------------------.--
(PID.TID 0000.0001) //     11 -.---------------------------------------------------------------.--
(PID.TID 0000.0001) //     10 -.---------------------------------------------------------------.--
(PID.TID 0000.0001) //      9 -.---------------------------------------------------------------.--
(PID.TID 0000.0001) //      8 -.---------------------------------------------------------------.--
(PID.TID 0000.0001) //      7 -.---------------------------------------------------------------.--
(PID.TID 0000.0001) //      6 -.---------------------------------------------------------------.--
(PID.TID 0000.0001) //      5 -.---------------------------------------------------------------.--
(PID.TID 0000.0001) //      4 -.---------------------------------------------------------------.--
(PID.TID 0000.0001) //      3 -.---------------------------------------------------------------.--
(PID.TID 0000.0001) //      2 -.---------------------------------------------------------------.--
(PID.TID 0000.0001) //      1 -.---------------------------------------------------------------.--
(PID.TID 0000.0001) //      0 ....................................................................
(PID.TID 0000.0001) //     -1 -.---------------------------------------------------------------.--
(PID.TID 0000.0001) // =======================================================
(PID.TID 0000.0001) // END OF FIELD                                          =
(PID.TID 0000.0001) // =======================================================
(PID.TID 0000.0001) 
(PID.TID 0000.0001) // =======================================================
(PID.TID 0000.0001) // Field Model Ro_surf (ini_masks_etc) at iteration          1
(PID.TID 0000.0001) // CMIN =          1.000000000000000E+32
(PID.TID 0000.0001) // CMAX =         -1.000000000000000E+32
(PID.TID 0000.0001) // CINT =          0.000000000000000E+00
(PID.TID 0000.0001) // SYMBOLS (CMIN->CMAX): -abcdefghijklmnopqrstuvwxyz+
(PID.TID 0000.0001) //                  0.0: .
(PID.TID 0000.0001) // RANGE I (Lo:Hi:Step):(  -1:  62:   1)
(PID.TID 0000.0001) // RANGE J (Lo:Hi:Step):(  62:  -1:  -1)
(PID.TID 0000.0001) // RANGE K (Lo:Hi:Step):(   1:   1:   1)
(PID.TID 0000.0001) // =======================================================
(PID.TID 0000.0001) K =   1
(PID.TID 0000.0001) //                I=8       I=18      I=28      I=34      I=44      I=54
(PID.TID 0000.0001) // |--J--|*01234567|901234567|901234567|901290123|567890123|567890123|56789012
(PID.TID 0000.0001) //     62 ....................................................................
(PID.TID 0000.0001) //     61 ....................................................................
(PID.TID 0000.0001) //     60 ....................................................................
(PID.TID 0000.0001) //     59 ....................................................................
(PID.TID 0000.0001) //     58 ....................................................................
(PID.TID 0000.0001) //     57 ....................................................................
(PID.TID 0000.0001) //     56 ....................................................................
(PID.TID 0000.0001) //     55 ....................................................................
(PID.TID 0000.0001) //     54 ....................................................................
(PID.TID 0000.0001) //     53 ....................................................................
(PID.TID 0000.0001) //     52 ....................................................................
(PID.TID 0000.0001) //     51 ....................................................................
(PID.TID 0000.0001) //     50 ....................................................................
(PID.TID 0000.0001) //     49 ....................................................................
(PID.TID 0000.0001) //     48 ....................................................................
(PID.TID 0000.0001) //     47 ....................................................................
(PID.TID 0000.0001) //     46 ....................................................................
(PID.TID 0000.0001) //     45 ....................................................................
(PID.TID 0000.0001) //     44 ....................................................................
(PID.TID 0000.0001) //     43 ....................................................................
(PID.TID 0000.0001) //     42 ....................................................................
(PID.TID 0000.0001) //     41 ....................................................................
(PID.TID 0000.0001) //     40 ....................................................................
(PID.TID 0000.0001) //     39 ....................................................................
(PID.TID 0000.0001) //     38 ....................................................................
(PID.TID 0000.0001) //     37 ....................................................................
(PID.TID 0000.0001) //     36 ....................................................................
(PID.TID 0000.0001) //     35 ....................................................................
(PID.TID 0000.0001) //     34 ....................................................................
(PID.TID 0000.0001) //     33 ....................................................................
(PID.TID 0000.0001) //     32 ....................................................................
(PID.TID 0000.0001) //     31 ....................................................................
(PID.TID 0000.0001) //     30 ....................................................................
(PID.TID 0000.0001) //     29 ....................................................................
(PID.TID 0000.0001) //     32 ....................................................................
(PID.TID 0000.0001) //     31 ....................................................................
(PID.TID 0000.0001) //     30 ....................................................................
(PID.TID 0000.0001) //     29 ....................................................................
(PID.TID 0000.0001) //     28 ....................................................................
(PID.TID 0000.0001) //     27 ....................................................................
(PID.TID 0000.0001) //     26 ....................................................................
(PID.TID 0000.0001) //     25 ....................................................................
(PID.TID 0000.0001) //     24 ....................................................................
(PID.TID 0000.0001) //     23 ....................................................................
(PID.TID 0000.0001) //     22 ....................................................................
(PID.TID 0000.0001) //     21 ....................................................................
(PID.TID 0000.0001) //     20 ....................................................................
(PID.TID 0000.0001) //     19 ....................................................................
(PID.TID 0000.0001) //     18 ....................................................................
(PID.TID 0000.0001) //     17 ....................................................................
(PID.TID 0000.0001) //     16 ....................................................................
(PID.TID 0000.0001) //     15 ....................................................................
(PID.TID 0000.0001) //     14 ....................................................................
(PID.TID 0000.0001) //     13 ....................................................................
(PID.TID 0000.0001) //     12 ....................................................................
(PID.TID 0000.0001) //     11 ....................................................................
(PID.TID 0000.0001) //     10 ....................................................................
(PID.TID 0000.0001) //      9 ....................................................................
(PID.TID 0000.0001) //      8 ....................................................................
(PID.TID 0000.0001) //      7 ....................................................................
(PID.TID 0000.0001) //      6 ....................................................................
(PID.TID 0000.0001) //      5 ....................................................................
(PID.TID 0000.0001) //      4 ....................................................................
(PID.TID 0000.0001) //      3 ....................................................................
(PID.TID 0000.0001) //      2 ....................................................................
(PID.TID 0000.0001) //      1 ....................................................................
(PID.TID 0000.0001) //      0 ....................................................................
(PID.TID 0000.0001) //     -1 ....................................................................
(PID.TID 0000.0001) // =======================================================
(PID.TID 0000.0001) // END OF FIELD                                          =
(PID.TID 0000.0001) // =======================================================
(PID.TID 0000.0001) 
(PID.TID 0000.0001) // =======================================================
(PID.TID 0000.0001) // Field hFacC at iteration          1
(PID.TID 0000.0001) // CMIN =          1.000000000000000E+00
(PID.TID 0000.0001) // CMAX =          1.000000000000000E+00
(PID.TID 0000.0001) // CINT =          0.000000000000000E+00
(PID.TID 0000.0001) // SYMBOLS (CMIN->CMAX): -abcdefghijklmnopqrstuvwxyz+
(PID.TID 0000.0001) //                  0.0: .
(PID.TID 0000.0001) // RANGE I (Lo:Hi:Step):(  -1:  62:   1)
(PID.TID 0000.0001) // RANGE J (Lo:Hi:Step):(  62:  -1:  -1)
(PID.TID 0000.0001) // RANGE K (Lo:Hi:Step):(   1:   1:   1)
(PID.TID 0000.0001) // =======================================================
(PID.TID 0000.0001) K =   1
(PID.TID 0000.0001) //                I=8       I=18      I=28      I=34      I=44      I=54
(PID.TID 0000.0001) // |--J--|*01234567|901234567|901234567|901290123|567890123|567890123|56789012
(PID.TID 0000.0001) //     62 -.---------------------------------------------------------------.--
(PID.TID 0000.0001) //     61 -.---------------------------------------------------------------.--
(PID.TID 0000.0001) //     60 ....................................................................
(PID.TID 0000.0001) //     59 -.---------------------------------------------------------------.--
(PID.TID 0000.0001) //     58 -.---------------------------------------------------------------.--
(PID.TID 0000.0001) //     57 -.---------------------------------------------------------------.--
(PID.TID 0000.0001) //     56 -.---------------------------------------------------------------.--
(PID.TID 0000.0001) //     55 -.---------------------------------------------------------------.--
(PID.TID 0000.0001) //     54 -.---------------------------------------------------------------.--
(PID.TID 0000.0001) //     53 -.---------------------------------------------------------------.--
(PID.TID 0000.0001) //     52 -.---------------------------------------------------------------.--
(PID.TID 0000.0001) //     51 -.---------------------------------------------------------------.--
(PID.TID 0000.0001) //     50 -.---------------------------------------------------------------.--
(PID.TID 0000.0001) //     49 -.---------------------------------------------------------------.--
(PID.TID 0000.0001) //     48 -.---------------------------------------------------------------.--
(PID.TID 0000.0001) //     47 -.---------------------------------------------------------------.--
(PID.TID 0000.0001) //     46 -.---------------------------------------------------------------.--
(PID.TID 0000.0001) //     45 -.---------------------------------------------------------------.--
(PID.TID 0000.0001) //     44 -.---------------------------------------------------------------.--
(PID.TID 0000.0001) //     43 -.---------------------------------------------------------------.--
(PID.TID 0000.0001) //     42 -.---------------------------------------------------------------.--
(PID.TID 0000.0001) //     41 -.---------------------------------------------------------------.--
(PID.TID 0000.0001) //     40 -.---------------------------------------------------------------.--
(PID.TID 0000.0001) //     39 -.---------------------------------------------------------------.--
(PID.TID 0000.0001) //     38 -.---------------------------------------------------------------.--
(PID.TID 0000.0001) //     37 -.---------------------------------------------------------------.--
(PID.TID 0000.0001) //     36 -.---------------------------------------------------------------.--
(PID.TID 0000.0001) //     35 -.---------------------------------------------------------------.--
(PID.TID 0000.0001) //     34 -.---------------------------------------------------------------.--
(PID.TID 0000.0001) //     33 -.---------------------------------------------------------------.--
(PID.TID 0000.0001) //     32 -.---------------------------------------------------------------.--
(PID.TID 0000.0001) //     31 -.---------------------------------------------------------------.--
(PID.TID 0000.0001) //     30 -.---------------------------------------------------------------.--
(PID.TID 0000.0001) //     29 -.---------------------------------------------------------------.--
(PID.TID 0000.0001) //     32 -.---------------------------------------------------------------.--
(PID.TID 0000.0001) //     31 -.---------------------------------------------------------------.--
(PID.TID 0000.0001) //     30 -.---------------------------------------------------------------.--
(PID.TID 0000.0001) //     29 -.---------------------------------------------------------------.--
(PID.TID 0000.0001) //     28 -.---------------------------------------------------------------.--
(PID.TID 0000.0001) //     27 -.---------------------------------------------------------------.--
(PID.TID 0000.0001) //     26 -.---------------------------------------------------------------.--
(PID.TID 0000.0001) //     25 -.---------------------------------------------------------------.--
(PID.TID 0000.0001) //     24 -.---------------------------------------------------------------.--
(PID.TID 0000.0001) //     23 -.---------------------------------------------------------------.--
(PID.TID 0000.0001) //     22 -.---------------------------------------------------------------.--
(PID.TID 0000.0001) //     21 -.---------------------------------------------------------------.--
(PID.TID 0000.0001) //     20 -.---------------------------------------------------------------.--
(PID.TID 0000.0001) //     19 -.---------------------------------------------------------------.--
(PID.TID 0000.0001) //     18 -.---------------------------------------------------------------.--
(PID.TID 0000.0001) //     17 -.---------------------------------------------------------------.--
(PID.TID 0000.0001) //     16 -.---------------------------------------------------------------.--
(PID.TID 0000.0001) //     15 -.---------------------------------------------------------------.--
(PID.TID 0000.0001) //     14 -.---------------------------------------------------------------.--
(PID.TID 0000.0001) //     13 -.---------------------------------------------------------------.--
(PID.TID 0000.0001) //     12 -.---------------------------------------------------------------.--
(PID.TID 0000.0001) //     11 -.---------------------------------------------------------------.--
(PID.TID 0000.0001) //     10 -.---------------------------------------------------------------.--
(PID.TID 0000.0001) //      9 -.---------------------------------------------------------------.--
(PID.TID 0000.0001) //      8 -.---------------------------------------------------------------.--
(PID.TID 0000.0001) //      7 -.---------------------------------------------------------------.--
(PID.TID 0000.0001) //      6 -.---------------------------------------------------------------.--
(PID.TID 0000.0001) //      5 -.---------------------------------------------------------------.--
(PID.TID 0000.0001) //      4 -.---------------------------------------------------------------.--
(PID.TID 0000.0001) //      3 -.---------------------------------------------------------------.--
(PID.TID 0000.0001) //      2 -.---------------------------------------------------------------.--
(PID.TID 0000.0001) //      1 -.---------------------------------------------------------------.--
(PID.TID 0000.0001) //      0 ....................................................................
(PID.TID 0000.0001) //     -1 -.---------------------------------------------------------------.--
(PID.TID 0000.0001) // =======================================================
(PID.TID 0000.0001) // END OF FIELD                                          =
(PID.TID 0000.0001) // =======================================================
(PID.TID 0000.0001) 
(PID.TID 0000.0001) // =======================================================
(PID.TID 0000.0001) // Field hFacW at iteration          1
(PID.TID 0000.0001) // CMIN =          1.000000000000000E+00
(PID.TID 0000.0001) // CMAX =          1.000000000000000E+00
(PID.TID 0000.0001) // CINT =          0.000000000000000E+00
(PID.TID 0000.0001) // SYMBOLS (CMIN->CMAX): -abcdefghijklmnopqrstuvwxyz+
(PID.TID 0000.0001) //                  0.0: .
(PID.TID 0000.0001) // RANGE I (Lo:Hi:Step):(  -1:  62:   1)
(PID.TID 0000.0001) // RANGE J (Lo:Hi:Step):(  62:  -1:  -1)
(PID.TID 0000.0001) // RANGE K (Lo:Hi:Step):(   1:   1:   1)
(PID.TID 0000.0001) // =======================================================
(PID.TID 0000.0001) K =   1
(PID.TID 0000.0001) //                I=8       I=18      I=28      I=34      I=44      I=54
(PID.TID 0000.0001) // |--J--|*01234567|901234567|901234567|901290123|567890123|567890123|56789012
(PID.TID 0000.0001) //     62 -..--------------------------------------------------------------..-
(PID.TID 0000.0001) //     61 -..--------------------------------------------------------------..-
(PID.TID 0000.0001) //     60 ....................................................................
(PID.TID 0000.0001) //     59 -..--------------------------------------------------------------..-
(PID.TID 0000.0001) //     58 -..--------------------------------------------------------------..-
(PID.TID 0000.0001) //     57 -..--------------------------------------------------------------..-
(PID.TID 0000.0001) //     56 -..--------------------------------------------------------------..-
(PID.TID 0000.0001) //     55 -..--------------------------------------------------------------..-
(PID.TID 0000.0001) //     54 -..--------------------------------------------------------------..-
(PID.TID 0000.0001) //     53 -..--------------------------------------------------------------..-
(PID.TID 0000.0001) //     52 -..--------------------------------------------------------------..-
(PID.TID 0000.0001) //     51 -..--------------------------------------------------------------..-
(PID.TID 0000.0001) //     50 -..--------------------------------------------------------------..-
(PID.TID 0000.0001) //     49 -..--------------------------------------------------------------..-
(PID.TID 0000.0001) //     48 -..--------------------------------------------------------------..-
(PID.TID 0000.0001) //     47 -..--------------------------------------------------------------..-
(PID.TID 0000.0001) //     46 -..--------------------------------------------------------------..-
(PID.TID 0000.0001) //     45 -..--------------------------------------------------------------..-
(PID.TID 0000.0001) //     44 -..--------------------------------------------------------------..-
(PID.TID 0000.0001) //     43 -..--------------------------------------------------------------..-
(PID.TID 0000.0001) //     42 -..--------------------------------------------------------------..-
(PID.TID 0000.0001) //     41 -..--------------------------------------------------------------..-
(PID.TID 0000.0001) //     40 -..--------------------------------------------------------------..-
(PID.TID 0000.0001) //     39 -..--------------------------------------------------------------..-
(PID.TID 0000.0001) //     38 -..--------------------------------------------------------------..-
(PID.TID 0000.0001) //     37 -..--------------------------------------------------------------..-
(PID.TID 0000.0001) //     36 -..--------------------------------------------------------------..-
(PID.TID 0000.0001) //     35 -..--------------------------------------------------------------..-
(PID.TID 0000.0001) //     34 -..--------------------------------------------------------------..-
(PID.TID 0000.0001) //     33 -..--------------------------------------------------------------..-
(PID.TID 0000.0001) //     32 -..--------------------------------------------------------------..-
(PID.TID 0000.0001) //     31 -..--------------------------------------------------------------..-
(PID.TID 0000.0001) //     30 -..--------------------------------------------------------------..-
(PID.TID 0000.0001) //     29 -..--------------------------------------------------------------..-
(PID.TID 0000.0001) //     32 -..--------------------------------------------------------------..-
(PID.TID 0000.0001) //     31 -..--------------------------------------------------------------..-
(PID.TID 0000.0001) //     30 -..--------------------------------------------------------------..-
(PID.TID 0000.0001) //     29 -..--------------------------------------------------------------..-
(PID.TID 0000.0001) //     28 -..--------------------------------------------------------------..-
(PID.TID 0000.0001) //     27 -..--------------------------------------------------------------..-
(PID.TID 0000.0001) //     26 -..--------------------------------------------------------------..-
(PID.TID 0000.0001) //     25 -..--------------------------------------------------------------..-
(PID.TID 0000.0001) //     24 -..--------------------------------------------------------------..-
(PID.TID 0000.0001) //     23 -..--------------------------------------------------------------..-
(PID.TID 0000.0001) //     22 -..--------------------------------------------------------------..-
(PID.TID 0000.0001) //     21 -..--------------------------------------------------------------..-
(PID.TID 0000.0001) //     20 -..--------------------------------------------------------------..-
(PID.TID 0000.0001) //     19 -..--------------------------------------------------------------..-
(PID.TID 0000.0001) //     18 -..--------------------------------------------------------------..-
(PID.TID 0000.0001) //     17 -..--------------------------------------------------------------..-
(PID.TID 0000.0001) //     16 -..--------------------------------------------------------------..-
(PID.TID 0000.0001) //     15 -..--------------------------------------------------------------..-
(PID.TID 0000.0001) //     14 -..--------------------------------------------------------------..-
(PID.TID 0000.0001) //     13 -..--------------------------------------------------------------..-
(PID.TID 0000.0001) //     12 -..--------------------------------------------------------------..-
(PID.TID 0000.0001) //     11 -..--------------------------------------------------------------..-
(PID.TID 0000.0001) //     10 -..--------------------------------------------------------------..-
(PID.TID 0000.0001) //      9 -..--------------------------------------------------------------..-
(PID.TID 0000.0001) //      8 -..--------------------------------------------------------------..-
(PID.TID 0000.0001) //      7 -..--------------------------------------------------------------..-
(PID.TID 0000.0001) //      6 -..--------------------------------------------------------------..-
(PID.TID 0000.0001) //      5 -..--------------------------------------------------------------..-
(PID.TID 0000.0001) //      4 -..--------------------------------------------------------------..-
(PID.TID 0000.0001) //      3 -..--------------------------------------------------------------..-
(PID.TID 0000.0001) //      2 -..--------------------------------------------------------------..-
(PID.TID 0000.0001) //      1 -..--------------------------------------------------------------..-
(PID.TID 0000.0001) //      0 ....................................................................
(PID.TID 0000.0001) //     -1 -..--------------------------------------------------------------..-
(PID.TID 0000.0001) // =======================================================
(PID.TID 0000.0001) // END OF FIELD                                          =
(PID.TID 0000.0001) // =======================================================
(PID.TID 0000.0001) 
(PID.TID 0000.0001) // =======================================================
(PID.TID 0000.0001) // Field hFacS at iteration          1
(PID.TID 0000.0001) // CMIN =          1.000000000000000E+00
(PID.TID 0000.0001) // CMAX =          1.000000000000000E+00
(PID.TID 0000.0001) // CINT =          0.000000000000000E+00
(PID.TID 0000.0001) // SYMBOLS (CMIN->CMAX): -abcdefghijklmnopqrstuvwxyz+
(PID.TID 0000.0001) //                  0.0: .
(PID.TID 0000.0001) // RANGE I (Lo:Hi:Step):(  -1:  62:   1)
(PID.TID 0000.0001) // RANGE J (Lo:Hi:Step):(  62:  -1:  -1)
(PID.TID 0000.0001) // RANGE K (Lo:Hi:Step):(   1:   1:   1)
(PID.TID 0000.0001) // =======================================================
(PID.TID 0000.0001) K =   1
(PID.TID 0000.0001) //                I=8       I=18      I=28      I=34      I=44      I=54
(PID.TID 0000.0001) // |--J--|*01234567|901234567|901234567|901290123|567890123|567890123|56789012
(PID.TID 0000.0001) //     62 -.---------------------------------------------------------------.--
(PID.TID 0000.0001) //     61 ....................................................................
(PID.TID 0000.0001) //     60 ....................................................................
(PID.TID 0000.0001) //     59 -.---------------------------------------------------------------.--
(PID.TID 0000.0001) //     58 -.---------------------------------------------------------------.--
(PID.TID 0000.0001) //     57 -.---------------------------------------------------------------.--
(PID.TID 0000.0001) //     56 -.---------------------------------------------------------------.--
(PID.TID 0000.0001) //     55 -.---------------------------------------------------------------.--
(PID.TID 0000.0001) //     54 -.---------------------------------------------------------------.--
(PID.TID 0000.0001) //     53 -.---------------------------------------------------------------.--
(PID.TID 0000.0001) //     52 -.---------------------------------------------------------------.--
(PID.TID 0000.0001) //     51 -.---------------------------------------------------------------.--
(PID.TID 0000.0001) //     50 -.---------------------------------------------------------------.--
(PID.TID 0000.0001) //     49 -.---------------------------------------------------------------.--
(PID.TID 0000.0001) //     48 -.---------------------------------------------------------------.--
(PID.TID 0000.0001) //     47 -.---------------------------------------------------------------.--
(PID.TID 0000.0001) //     46 -.---------------------------------------------------------------.--
(PID.TID 0000.0001) //     45 -.---------------------------------------------------------------.--
(PID.TID 0000.0001) //     44 -.---------------------------------------------------------------.--
(PID.TID 0000.0001) //     43 -.---------------------------------------------------------------.--
(PID.TID 0000.0001) //     42 -.---------------------------------------------------------------.--
(PID.TID 0000.0001) //     41 -.---------------------------------------------------------------.--
(PID.TID 0000.0001) //     40 -.---------------------------------------------------------------.--
(PID.TID 0000.0001) //     39 -.---------------------------------------------------------------.--
(PID.TID 0000.0001) //     38 -.---------------------------------------------------------------.--
(PID.TID 0000.0001) //     37 -.---------------------------------------------------------------.--
(PID.TID 0000.0001) //     36 -.---------------------------------------------------------------.--
(PID.TID 0000.0001) //     35 -.---------------------------------------------------------------.--
(PID.TID 0000.0001) //     34 -.---------------------------------------------------------------.--
(PID.TID 0000.0001) //     33 -.---------------------------------------------------------------.--
(PID.TID 0000.0001) //     32 -.---------------------------------------------------------------.--
(PID.TID 0000.0001) //     31 -.---------------------------------------------------------------.--
(PID.TID 0000.0001) //     30 -.---------------------------------------------------------------.--
(PID.TID 0000.0001) //     29 -.---------------------------------------------------------------.--
(PID.TID 0000.0001) //     32 -.---------------------------------------------------------------.--
(PID.TID 0000.0001) //     31 -.---------------------------------------------------------------.--
(PID.TID 0000.0001) //     30 -.---------------------------------------------------------------.--
(PID.TID 0000.0001) //     29 -.---------------------------------------------------------------.--
(PID.TID 0000.0001) //     28 -.---------------------------------------------------------------.--
(PID.TID 0000.0001) //     27 -.---------------------------------------------------------------.--
(PID.TID 0000.0001) //     26 -.---------------------------------------------------------------.--
(PID.TID 0000.0001) //     25 -.---------------------------------------------------------------.--
(PID.TID 0000.0001) //     24 -.---------------------------------------------------------------.--
(PID.TID 0000.0001) //     23 -.---------------------------------------------------------------.--
(PID.TID 0000.0001) //     22 -.---------------------------------------------------------------.--
(PID.TID 0000.0001) //     21 -.---------------------------------------------------------------.--
(PID.TID 0000.0001) //     20 -.---------------------------------------------------------------.--
(PID.TID 0000.0001) //     19 -.---------------------------------------------------------------.--
(PID.TID 0000.0001) //     18 -.---------------------------------------------------------------.--
(PID.TID 0000.0001) //     17 -.---------------------------------------------------------------.--
(PID.TID 0000.0001) //     16 -.---------------------------------------------------------------.--
(PID.TID 0000.0001) //     15 -.---------------------------------------------------------------.--
(PID.TID 0000.0001) //     14 -.---------------------------------------------------------------.--
(PID.TID 0000.0001) //     13 -.---------------------------------------------------------------.--
(PID.TID 0000.0001) //     12 -.---------------------------------------------------------------.--
(PID.TID 0000.0001) //     11 -.---------------------------------------------------------------.--
(PID.TID 0000.0001) //     10 -.---------------------------------------------------------------.--
(PID.TID 0000.0001) //      9 -.---------------------------------------------------------------.--
(PID.TID 0000.0001) //      8 -.---------------------------------------------------------------.--
(PID.TID 0000.0001) //      7 -.---------------------------------------------------------------.--
(PID.TID 0000.0001) //      6 -.---------------------------------------------------------------.--
(PID.TID 0000.0001) //      5 -.---------------------------------------------------------------.--
(PID.TID 0000.0001) //      4 -.---------------------------------------------------------------.--
(PID.TID 0000.0001) //      3 -.---------------------------------------------------------------.--
(PID.TID 0000.0001) //      2 -.---------------------------------------------------------------.--
(PID.TID 0000.0001) //      1 ....................................................................
(PID.TID 0000.0001) //      0 ....................................................................
(PID.TID 0000.0001) //     -1 -.---------------------------------------------------------------.--
(PID.TID 0000.0001) // =======================================================
(PID.TID 0000.0001) // END OF FIELD                                          =
(PID.TID 0000.0001) // =======================================================
(PID.TID 0000.0001) 
(PID.TID 0000.0001)  PACKAGES_BOOT: opening data.pkg
(PID.TID 0000.0001)  OPEN_COPY_DATA_FILE: opening file data.pkg
(PID.TID 0000.0001) // =======================================================
(PID.TID 0000.0001) // Parameter file "data.pkg"
(PID.TID 0000.0001) // =======================================================
(PID.TID 0000.0001) ># Packages
(PID.TID 0000.0001) > &PACKAGES
(PID.TID 0000.0001) > &
(PID.TID 0000.0001) 
(PID.TID 0000.0001)  PACKAGES_BOOT: finished reading data.pkg
(PID.TID 0000.0001) 
(PID.TID 0000.0001) // ===================================
(PID.TID 0000.0001) // GAD parameters :
(PID.TID 0000.0001) // ===================================
(PID.TID 0000.0001) tempAdvScheme =   /* Temp. advection scheme selector */
(PID.TID 0000.0001)                       2
(PID.TID 0000.0001)     ;
(PID.TID 0000.0001) tempMultiDimAdvec =   /* use Muti-Dim Advec method for Temp */
(PID.TID 0000.0001)                   F
(PID.TID 0000.0001)     ;
(PID.TID 0000.0001) tempAdamsBashforth =   /* use Adams-Bashforth time-stepping for Temp */
(PID.TID 0000.0001)                   T
(PID.TID 0000.0001)     ;
(PID.TID 0000.0001) saltAdvScheme =   /* Salt. advection scheme selector */
(PID.TID 0000.0001)                       2
(PID.TID 0000.0001)     ;
(PID.TID 0000.0001) saltMultiDimAdvec =   /* use Muti-Dim Advec method for Salt */
(PID.TID 0000.0001)                   F
(PID.TID 0000.0001)     ;
(PID.TID 0000.0001) saltAdamsBashforth =   /* use Adams-Bashforth time-stepping for Salt */
(PID.TID 0000.0001)                   T
(PID.TID 0000.0001)     ;
(PID.TID 0000.0001) // ===================================
(PID.TID 0000.0001) %MON fCori_max                    =   1.2531888150749E-04
(PID.TID 0000.0001) %MON fCori_min                    =   1.2692231394899E-06
(PID.TID 0000.0001) %MON fCori_mean                   =   6.9445325868421E-05
(PID.TID 0000.0001) %MON fCori_sd                     =   3.7155977966559E-05
(PID.TID 0000.0001) %MON fCoriG_max                   =   1.2466993031403E-04
(PID.TID 0000.0001) %MON fCoriG_min                   =   2.5383496227238E-06
(PID.TID 0000.0001) %MON fCoriG_mean                  =   6.9552233077979E-05
(PID.TID 0000.0001) %MON fCoriG_sd                    =   3.6565971975490E-05
(PID.TID 0000.0001) %MON fCoriCos_max                 =   1.4543856626703E-04
(PID.TID 0000.0001) %MON fCoriCos_min                 =   7.3818462615386E-05
(PID.TID 0000.0001) %MON fCoriCos_mean                =   1.2028283275228E-04
(PID.TID 0000.0001) %MON fCoriCos_sd                  =   2.1972884349854E-05
(PID.TID 0000.0001) // CG2D normalisation factor =          0.2612492823579744228787436E-03
(PID.TID 0000.0001) 
(PID.TID 0000.0001) CONFIG_CHECK: OK
(PID.TID 0000.0001) // =======================================================
(PID.TID 0000.0001) // Model configuration
(PID.TID 0000.0001) // =======================================================
(PID.TID 0000.0001) //
(PID.TID 0000.0001) // "Physical" paramters ( PARM01 in namelist )
(PID.TID 0000.0001) //
(PID.TID 0000.0001) buoyancyRelation = OCEANIC
(PID.TID 0000.0001) tRef =   /* Reference temperature profile ( oC or oK ) */
(PID.TID 0000.0001)                 2.000000000000000E+01,      /* K =  1 */
(PID.TID 0000.0001)                 1.000000000000000E+01,      /* K =  2 */
(PID.TID 0000.0001)                 8.000000000000000E+00,      /* K =  3 */
(PID.TID 0000.0001)                 6.000000000000000E+00       /* K =  4 */
(PID.TID 0000.0001)     ;
(PID.TID 0000.0001) sRef =   /* Reference salinity profile ( ppt ) */
(PID.TID 0000.0001)     4 @  1.000000000000000E+01              /* K =  1:  4 */
(PID.TID 0000.0001)     ;
(PID.TID 0000.0001) viscAh =   /* Lateral eddy viscosity ( m^2/s ) */
(PID.TID 0000.0001)                 4.000000000000000E+02
(PID.TID 0000.0001)     ;
(PID.TID 0000.0001) viscAh =   /* Lateral biharmonic viscosity ( m^4/s ) */
(PID.TID 0000.0001)                 0.000000000000000E+00
(PID.TID 0000.0001)     ;
(PID.TID 0000.0001) no_slip_sides =  /* Viscous BCs: No-slip sides */
(PID.TID 0000.0001)                   F
(PID.TID 0000.0001)     ;
(PID.TID 0000.0001) viscAz =   /* Vertical eddy viscosity ( m^2/s ) */
(PID.TID 0000.0001)                 1.000000000000000E-02
(PID.TID 0000.0001)     ;
(PID.TID 0000.0001) viscAr =   /* Vertical eddy viscosity ( units of r^2/s ) */
(PID.TID 0000.0001)                 1.000000000000000E-02
(PID.TID 0000.0001)     ;
(PID.TID 0000.0001) diffKhT =   /* Laplacian diffusion of heat laterally ( m^2/s ) */
(PID.TID 0000.0001)                 4.000000000000000E+02
(PID.TID 0000.0001)     ;
(PID.TID 0000.0001) diffK4T =   /* Bihaarmonic diffusion of heat laterally ( m^4/s ) */
(PID.TID 0000.0001)                 0.000000000000000E+00
(PID.TID 0000.0001)     ;
(PID.TID 0000.0001) diffKzT =   /* Laplacian diffusion of heat vertically ( m^2/s ) */
(PID.TID 0000.0001)                 1.000000000000000E-02
(PID.TID 0000.0001)     ;
(PID.TID 0000.0001) diffKrT =   /* Laplacian diffusion of heat vertically ( m^2/s ) */
(PID.TID 0000.0001)                 1.000000000000000E-02
(PID.TID 0000.0001)     ;
(PID.TID 0000.0001) diffKhS =   /* Laplacian diffusion of salt laterally ( m^2/s ) */
(PID.TID 0000.0001)                 0.000000000000000E+00
(PID.TID 0000.0001)     ;
(PID.TID 0000.0001) diffK4S =   /* Bihaarmonic diffusion of salt laterally ( m^4/s ) */
(PID.TID 0000.0001)                 0.000000000000000E+00
(PID.TID 0000.0001)     ;
(PID.TID 0000.0001) diffKzS =   /* Laplacian diffusion of salt vertically ( m^2/s ) */
(PID.TID 0000.0001)                 1.234567000000000E+05
(PID.TID 0000.0001)     ;
(PID.TID 0000.0001) diffKrS =   /* Laplacian diffusion of salt vertically ( m^2/s ) */
(PID.TID 0000.0001)                 0.000000000000000E+00
(PID.TID 0000.0001)     ;
(PID.TID 0000.0001)  Equation of State : eosType = LINEAR
(PID.TID 0000.0001) tAlpha =   /* Linear EOS thermal expansion coefficient ( 1/degree ) */
(PID.TID 0000.0001)                 2.000000000000000E-04
(PID.TID 0000.0001)     ;
(PID.TID 0000.0001) sBeta =   /* Linear EOS haline contraction coefficient ( 1/ppt ) */
(PID.TID 0000.0001)                 0.000000000000000E+00
(PID.TID 0000.0001)     ;
(PID.TID 0000.0001) rhonil =   /* Reference density ( kg/m^3 ) */
(PID.TID 0000.0001)                 9.998000000000000E+02
(PID.TID 0000.0001)     ;
(PID.TID 0000.0001) rhoConst =   /* Reference density ( kg/m^3 ) */
(PID.TID 0000.0001)                 9.998000000000000E+02
(PID.TID 0000.0001)     ;
(PID.TID 0000.0001) rhoConstFresh =   /* Reference density ( kg/m^3 ) */
(PID.TID 0000.0001)                 9.998000000000000E+02
(PID.TID 0000.0001)     ;
(PID.TID 0000.0001) gravity =   /* Gravitational acceleration ( m/s^2 ) */
(PID.TID 0000.0001)                 9.810000000000000E+00
(PID.TID 0000.0001)     ;
(PID.TID 0000.0001) gBaro =   /* Barotropic gravity ( m/s^2 ) */
(PID.TID 0000.0001)                 9.810000000000000E+00
(PID.TID 0000.0001)     ;
(PID.TID 0000.0001) rotationPeriod =   /* Rotation Period ( s ) */
(PID.TID 0000.0001)                 8.640000000000000E+04
(PID.TID 0000.0001)     ;
(PID.TID 0000.0001) omega =   /* Angular velocity ( rad/s ) */
(PID.TID 0000.0001)                 7.272205216643040E-05
(PID.TID 0000.0001)     ;
(PID.TID 0000.0001) f0 =   /* Reference coriolis parameter ( 1/s ) */
(PID.TID 0000.0001)                 1.000000000000000E-04
(PID.TID 0000.0001)     ;
(PID.TID 0000.0001) beta =   /* Beta ( 1/(m.s) ) */
(PID.TID 0000.0001)                 9.999999999999999E-12
(PID.TID 0000.0001)     ;
(PID.TID 0000.0001) freeSurfFac =   /* Implicit free surface factor */
(PID.TID 0000.0001)                 1.000000000000000E+00
(PID.TID 0000.0001)     ;
(PID.TID 0000.0001) implicitFreeSurface =   /* Implicit free surface on/off flag */
(PID.TID 0000.0001)                   T
(PID.TID 0000.0001)     ;
(PID.TID 0000.0001) rigidLid =   /* Rigid lid on/off flag */
(PID.TID 0000.0001)                   F
(PID.TID 0000.0001)     ;
(PID.TID 0000.0001) implicSurfPress =   /* Surface Pressure implicit factor (0-1)*/
(PID.TID 0000.0001)                 1.000000000000000E+00
(PID.TID 0000.0001)     ;
(PID.TID 0000.0001) implicDiv2Dflow =   /* Barot. Flow Div. implicit factor (0-1)*/
(PID.TID 0000.0001)                 1.000000000000000E+00
(PID.TID 0000.0001)     ;
(PID.TID 0000.0001) exactConserv =   /* Exact Volume Conservation on/off flag*/
(PID.TID 0000.0001)                   F
(PID.TID 0000.0001)     ;
(PID.TID 0000.0001) uniformLin_PhiSurf =   /* use uniform Bo_surf on/off flag*/
(PID.TID 0000.0001)                   T
(PID.TID 0000.0001)     ;
(PID.TID 0000.0001) nonlinFreeSurf =   /* Non-linear Free Surf. options (-1,0,1,2,3)*/
(PID.TID 0000.0001)                       0
(PID.TID 0000.0001)     ;
(PID.TID 0000.0001)      -1,0= Off ; 1,2,3= On, 2=+rescale gU,gV, 3=+update cg2d solv.
(PID.TID 0000.0001) hFacInf =   /* lower threshold for hFac (nonlinFreeSurf only)*/
(PID.TID 0000.0001)                 2.000000000000000E-01
(PID.TID 0000.0001)     ;
(PID.TID 0000.0001) hFacSup =   /* upper threshold for hFac (nonlinFreeSurf only)*/
(PID.TID 0000.0001)                 2.000000000000000E+00
(PID.TID 0000.0001)     ;
(PID.TID 0000.0001) select_rStar =   /* r* Coordinate options (not yet implemented)*/
(PID.TID 0000.0001)                       0
(PID.TID 0000.0001)     ;
(PID.TID 0000.0001) useRealFreshWaterFlux =   /* Real Fresh Water Flux on/off flag*/
(PID.TID 0000.0001)                   F
(PID.TID 0000.0001)     ;
(PID.TID 0000.0001) convertFW2Salt = /* convert F.W. Flux to Salt Flux (-1=use local S)(ppt)*/
(PID.TID 0000.0001)                 3.500000000000000E+01
(PID.TID 0000.0001)     ;
(PID.TID 0000.0001) multiDimAdvection =   /* enable/disable Multi-Dim Advection */
(PID.TID 0000.0001)                   T
(PID.TID 0000.0001)     ;
(PID.TID 0000.0001) staggerTimeStep =   /* Stagger time stepping on/off flag */
(PID.TID 0000.0001)                   F
(PID.TID 0000.0001)     ;
(PID.TID 0000.0001) momStepping =  /* Momentum equation on/off flag */
(PID.TID 0000.0001)                   T
(PID.TID 0000.0001)     ;
(PID.TID 0000.0001) momAdvection =  /* Momentum advection on/off flag */
(PID.TID 0000.0001)                   T
(PID.TID 0000.0001)     ;
(PID.TID 0000.0001) momViscosity =  /* Momentum viscosity on/off flag */
(PID.TID 0000.0001)                   T
(PID.TID 0000.0001)     ;
(PID.TID 0000.0001) useCoriolis =  /* Coriolis on/off flag */
(PID.TID 0000.0001)                   T
(PID.TID 0000.0001)     ;
(PID.TID 0000.0001) momForcing =  /* Momentum forcing on/off flag */
(PID.TID 0000.0001)                   T
(PID.TID 0000.0001)     ;
(PID.TID 0000.0001) momPressureForcing =  /* Momentum pressure term on/off flag */
(PID.TID 0000.0001)                   T
(PID.TID 0000.0001)     ;
(PID.TID 0000.0001) tempStepping =  /* Temperature equation on/off flag */
(PID.TID 0000.0001)                   T
(PID.TID 0000.0001)     ;
(PID.TID 0000.0001) tempAdvection=  /* Temperature advection on/off flag */
(PID.TID 0000.0001)                   T
(PID.TID 0000.0001)     ;
(PID.TID 0000.0001) tempForcing  =  /* Temperature forcing on/off flag */
(PID.TID 0000.0001)                   T
(PID.TID 0000.0001)     ;
(PID.TID 0000.0001) saltStepping =  /* Salinity equation on/off flag */
(PID.TID 0000.0001)                   T
(PID.TID 0000.0001)     ;
(PID.TID 0000.0001) saltAdvection=  /* Salinity advection on/off flag */
(PID.TID 0000.0001)                   T
(PID.TID 0000.0001)     ;
(PID.TID 0000.0001) saltForcing  =  /* Salinity forcing on/off flag */
(PID.TID 0000.0001)                   T
(PID.TID 0000.0001)     ;
(PID.TID 0000.0001) nonHydrostatic =  /* Non-Hydrostatic on/off flag */
(PID.TID 0000.0001)                   F
(PID.TID 0000.0001)     ;
(PID.TID 0000.0001) useCDscheme =  /* CD scheme on/off flag */
(PID.TID 0000.0001)                   F
(PID.TID 0000.0001)     ;
(PID.TID 0000.0001) useJamartWetPoints= /* Coriolis WetPoints method flag */
(PID.TID 0000.0001)                   F
(PID.TID 0000.0001)     ;
(PID.TID 0000.0001) //
(PID.TID 0000.0001) // Elliptic solver(s) paramters ( PARM02 in namelist )
(PID.TID 0000.0001) //
(PID.TID 0000.0001) cg2dMaxIters =   /* Upper limit on 2d con. grad iterations  */
(PID.TID 0000.0001)                    1000
(PID.TID 0000.0001)     ;
(PID.TID 0000.0001) cg2dChkResFreq =   /* 2d con. grad convergence test frequency */
(PID.TID 0000.0001)                       1
(PID.TID 0000.0001)     ;
(PID.TID 0000.0001) cg2dTargetResidual =   /* 2d con. grad target residual  */
(PID.TID 0000.0001)                 1.000000000000000E-13
(PID.TID 0000.0001)     ;
(PID.TID 0000.0001) //
(PID.TID 0000.0001) // Time stepping paramters ( PARM03 in namelist )
(PID.TID 0000.0001) //
(PID.TID 0000.0001) nIter0 =   /* Base timestep number  */
(PID.TID 0000.0001)                       0
(PID.TID 0000.0001)     ;
(PID.TID 0000.0001) nTimeSteps =   /* Number of timesteps */
(PID.TID 0000.0001)                      10
(PID.TID 0000.0001)     ;
(PID.TID 0000.0001) deltatTmom =   /* Momentum equation timestep ( s ) */
(PID.TID 0000.0001)                 1.200000000000000E+03
(PID.TID 0000.0001)     ;
(PID.TID 0000.0001) deltaTfreesurf =   /* FreeSurface equation timestep ( s ) */
(PID.TID 0000.0001)                 1.200000000000000E+03
(PID.TID 0000.0001)     ;
(PID.TID 0000.0001) deltatTtracer =   /* Tracer equation timestep ( s ) */
(PID.TID 0000.0001)                 1.200000000000000E+03
(PID.TID 0000.0001)     ;
(PID.TID 0000.0001) deltatTClock  =   /* Model clock timestep ( s ) */
(PID.TID 0000.0001)                 1.200000000000000E+03
(PID.TID 0000.0001)     ;
(PID.TID 0000.0001) cAdjFreq =   /* Convective adjustment interval ( s ) */
(PID.TID 0000.0001)                 0.000000000000000E+00
(PID.TID 0000.0001)     ;
(PID.TID 0000.0001) forcing_In_AB =   /* put T,S Forcing in Adams-Bash. stepping */
(PID.TID 0000.0001)                   T
(PID.TID 0000.0001)     ;
(PID.TID 0000.0001) abeps =   /* Adams-Bashforth stabilizing weight */
(PID.TID 0000.0001)                 1.000000000000000E-01
(PID.TID 0000.0001)     ;
(PID.TID 0000.0001) startTime =   /* Run start time ( s ). */
(PID.TID 0000.0001)                 0.000000000000000E+00
(PID.TID 0000.0001)     ;
(PID.TID 0000.0001) endTime =   /* Integration ending time ( s ). */
(PID.TID 0000.0001)                 1.200000000000000E+04
(PID.TID 0000.0001)     ;
(PID.TID 0000.0001) pChkPtFreq =   /* Permanent restart/checkpoint file interval ( s ). */
(PID.TID 0000.0001)                 1.700000000000000E+04
(PID.TID 0000.0001)     ;
(PID.TID 0000.0001) chkPtFreq =   /* Rolling restart/checkpoint file interval ( s ). */
(PID.TID 0000.0001)                 0.000000000000000E+00
(PID.TID 0000.0001)     ;
(PID.TID 0000.0001) dumpFreq =   /* Model state write out interval ( s ). */
(PID.TID 0000.0001)                 2.592000000000000E+06
(PID.TID 0000.0001)     ;
(PID.TID 0000.0001) externForcingPeriod =   /* forcing period (s) */
(PID.TID 0000.0001)                 0.000000000000000E+00
(PID.TID 0000.0001)     ;
(PID.TID 0000.0001) externForcingCycle =   /* period of the cyle (s). */
(PID.TID 0000.0001)                 0.000000000000000E+00
(PID.TID 0000.0001)     ;
(PID.TID 0000.0001) tauThetaClimRelax =   /* relaxation time scale (s) */
(PID.TID 0000.0001)                 0.000000000000000E+00
(PID.TID 0000.0001)     ;
(PID.TID 0000.0001) tauSaltClimRelax =   /* relaxation time scale (s) */
(PID.TID 0000.0001)                 0.000000000000000E+00
(PID.TID 0000.0001)     ;
(PID.TID 0000.0001) latBandClimRelax =   /* max. Lat. where relaxation */
(PID.TID 0000.0001)                 1.800000000000000E+02
(PID.TID 0000.0001)     ;
(PID.TID 0000.0001) //
(PID.TID 0000.0001) // Gridding paramters ( PARM04 in namelist )
(PID.TID 0000.0001) //
(PID.TID 0000.0001) usingCartesianGrid =   /* Cartesian coordinates flag ( True / False ) */
(PID.TID 0000.0001)                   F
(PID.TID 0000.0001)     ;
(PID.TID 0000.0001) usingSphericalPolarGrid =   /* Spherical coordinates flag ( True / False ) */
(PID.TID 0000.0001)                   T
(PID.TID 0000.0001)     ;
(PID.TID 0000.0001) groundAtK1 =   /* Lower Boundary (ground) at the surface(k=1) ( T / F ) */
(PID.TID 0000.0001)                   F
(PID.TID 0000.0001)     ;
(PID.TID 0000.0001) Ro_SeaLevel =   /* r(1) ( units of r ) */
(PID.TID 0000.0001)                 0.000000000000000E+00
(PID.TID 0000.0001)     ;
(PID.TID 0000.0001) rkFac =   /* minus Vertical index orientation  */
(PID.TID 0000.0001)                 1.000000000000000E+00
(PID.TID 0000.0001)     ;
(PID.TID 0000.0001) horiVertRatio =   /* Ratio on units : Horiz - Vertical */
(PID.TID 0000.0001)                 1.000000000000000E+00
(PID.TID 0000.0001)     ;
(PID.TID 0000.0001) drC =   /* C spacing ( units of r ) */
(PID.TID 0000.0001)                 2.500000000000000E+02,      /* K =  1 */
(PID.TID 0000.0001)     3 @  5.000000000000000E+02              /* K =  2:  4 */
(PID.TID 0000.0001)     ;
(PID.TID 0000.0001) drF =   /* W spacing ( units of r ) */
(PID.TID 0000.0001)     4 @  5.000000000000000E+02              /* K =  1:  4 */
(PID.TID 0000.0001)     ;
(PID.TID 0000.0001) delX =   /* U spacing ( m - cartesian, degrees - spherical ) */
(PID.TID 0000.0001)    60 @  1.000000000000000E+00              /* I =  1: 60 */
(PID.TID 0000.0001)     ;
(PID.TID 0000.0001) delY =   /* V spacing ( m - cartesian, degrees - spherical ) */
(PID.TID 0000.0001)    60 @  1.000000000000000E+00              /* J =  1: 60 */
(PID.TID 0000.0001)     ;
(PID.TID 0000.0001) phiMin =    /* South edge (ignored - cartesian, degrees - spherical ) */
(PID.TID 0000.0001)                 0.000000000000000E+00
(PID.TID 0000.0001)     ;
(PID.TID 0000.0001) thetaMin =    /* West edge ( ignored - cartesian, degrees - spherical ) */
(PID.TID 0000.0001)                 0.000000000000000E+00
(PID.TID 0000.0001)     ;
(PID.TID 0000.0001) rSphere =    /* Radius ( ignored - cartesian, m - spherical ) */
(PID.TID 0000.0001)                 6.370000000000000E+06
(PID.TID 0000.0001)     ;
(PID.TID 0000.0001) xcoord =   /* P-point X coord ( m - cartesian, degrees - spherical ) */
(PID.TID 0000.0001)                 5.000000000000000E-01,      /* I =  1 */
(PID.TID 0000.0001)                 1.500000000000000E+00,      /* I =  2 */
(PID.TID 0000.0001)                 2.500000000000000E+00,      /* I =  3 */
(PID.TID 0000.0001)                 3.500000000000000E+00,      /* I =  4 */
(PID.TID 0000.0001)                 4.500000000000000E+00,      /* I =  5 */
(PID.TID 0000.0001)                 5.500000000000000E+00,      /* I =  6 */
(PID.TID 0000.0001)                 6.500000000000000E+00,      /* I =  7 */
(PID.TID 0000.0001)                 7.500000000000000E+00,      /* I =  8 */
(PID.TID 0000.0001)                 8.500000000000000E+00,      /* I =  9 */
(PID.TID 0000.0001)                 9.500000000000000E+00,      /* I = 10 */
(PID.TID 0000.0001)                 1.050000000000000E+01,      /* I = 11 */
(PID.TID 0000.0001)                 1.150000000000000E+01,      /* I = 12 */
(PID.TID 0000.0001)                 1.250000000000000E+01,      /* I = 13 */
(PID.TID 0000.0001)                 1.350000000000000E+01,      /* I = 14 */
(PID.TID 0000.0001)                 1.450000000000000E+01,      /* I = 15 */
(PID.TID 0000.0001)                 1.550000000000000E+01,      /* I = 16 */
(PID.TID 0000.0001)                 1.650000000000000E+01,      /* I = 17 */
(PID.TID 0000.0001)                 1.750000000000000E+01,      /* I = 18 */
(PID.TID 0000.0001)                 1.850000000000000E+01,      /* I = 19 */
(PID.TID 0000.0001)                 1.950000000000000E+01,      /* I = 20 */
(PID.TID 0000.0001)                 2.050000000000000E+01,      /* I = 21 */
(PID.TID 0000.0001)                 2.150000000000000E+01,      /* I = 22 */
(PID.TID 0000.0001)                 2.250000000000000E+01,      /* I = 23 */
(PID.TID 0000.0001)                 2.350000000000000E+01,      /* I = 24 */
(PID.TID 0000.0001)                 2.450000000000000E+01,      /* I = 25 */
(PID.TID 0000.0001)                 2.550000000000000E+01,      /* I = 26 */
(PID.TID 0000.0001)                 2.650000000000000E+01,      /* I = 27 */
(PID.TID 0000.0001)                 2.750000000000000E+01,      /* I = 28 */
(PID.TID 0000.0001)                 2.850000000000000E+01,      /* I = 29 */
(PID.TID 0000.0001)                 2.950000000000000E+01,      /* I = 30 */
(PID.TID 0000.0001)                 3.050000000000000E+01,      /* I = 31 */
(PID.TID 0000.0001)                 3.150000000000000E+01,      /* I = 32 */
(PID.TID 0000.0001)                 3.250000000000000E+01,      /* I = 33 */
(PID.TID 0000.0001)                 3.350000000000000E+01,      /* I = 34 */
(PID.TID 0000.0001)                 3.450000000000000E+01,      /* I = 35 */
(PID.TID 0000.0001)                 3.550000000000000E+01,      /* I = 36 */
(PID.TID 0000.0001)                 3.650000000000000E+01,      /* I = 37 */
(PID.TID 0000.0001)                 3.750000000000000E+01,      /* I = 38 */
(PID.TID 0000.0001)                 3.850000000000000E+01,      /* I = 39 */
(PID.TID 0000.0001)                 3.950000000000000E+01,      /* I = 40 */
(PID.TID 0000.0001)                 4.050000000000000E+01,      /* I = 41 */
(PID.TID 0000.0001)                 4.150000000000000E+01,      /* I = 42 */
(PID.TID 0000.0001)                 4.250000000000000E+01,      /* I = 43 */
(PID.TID 0000.0001)                 4.350000000000000E+01,      /* I = 44 */
(PID.TID 0000.0001)                 4.450000000000000E+01,      /* I = 45 */
(PID.TID 0000.0001)                 4.550000000000000E+01,      /* I = 46 */
(PID.TID 0000.0001)                 4.650000000000000E+01,      /* I = 47 */
(PID.TID 0000.0001)                 4.750000000000000E+01,      /* I = 48 */
(PID.TID 0000.0001)                 4.850000000000000E+01,      /* I = 49 */
(PID.TID 0000.0001)                 4.950000000000000E+01,      /* I = 50 */
(PID.TID 0000.0001)                 5.050000000000000E+01,      /* I = 51 */
(PID.TID 0000.0001)                 5.150000000000000E+01,      /* I = 52 */
(PID.TID 0000.0001)                 5.250000000000000E+01,      /* I = 53 */
(PID.TID 0000.0001)                 5.350000000000000E+01,      /* I = 54 */
(PID.TID 0000.0001)                 5.450000000000000E+01,      /* I = 55 */
(PID.TID 0000.0001)                 5.550000000000000E+01,      /* I = 56 */
(PID.TID 0000.0001)                 5.650000000000000E+01,      /* I = 57 */
(PID.TID 0000.0001)                 5.750000000000000E+01,      /* I = 58 */
(PID.TID 0000.0001)                 5.850000000000000E+01,      /* I = 59 */
(PID.TID 0000.0001)                 5.950000000000000E+01       /* I = 60 */
(PID.TID 0000.0001)     ;
(PID.TID 0000.0001) ycoord =   /* P-point Y coord ( m - cartesian, degrees - spherical ) */
(PID.TID 0000.0001)                 5.000000000000000E-01,      /* J =  1 */
(PID.TID 0000.0001)                 1.500000000000000E+00,      /* J =  2 */
(PID.TID 0000.0001)                 2.500000000000000E+00,      /* J =  3 */
(PID.TID 0000.0001)                 3.500000000000000E+00,      /* J =  4 */
(PID.TID 0000.0001)                 4.500000000000000E+00,      /* J =  5 */
(PID.TID 0000.0001)                 5.500000000000000E+00,      /* J =  6 */
(PID.TID 0000.0001)                 6.500000000000000E+00,      /* J =  7 */
(PID.TID 0000.0001)                 7.500000000000000E+00,      /* J =  8 */
(PID.TID 0000.0001)                 8.500000000000000E+00,      /* J =  9 */
(PID.TID 0000.0001)                 9.500000000000000E+00,      /* J = 10 */
(PID.TID 0000.0001)                 1.050000000000000E+01,      /* J = 11 */
(PID.TID 0000.0001)                 1.150000000000000E+01,      /* J = 12 */
(PID.TID 0000.0001)                 1.250000000000000E+01,      /* J = 13 */
(PID.TID 0000.0001)                 1.350000000000000E+01,      /* J = 14 */
(PID.TID 0000.0001)                 1.450000000000000E+01,      /* J = 15 */
(PID.TID 0000.0001)                 1.550000000000000E+01,      /* J = 16 */
(PID.TID 0000.0001)                 1.650000000000000E+01,      /* J = 17 */
(PID.TID 0000.0001)                 1.750000000000000E+01,      /* J = 18 */
(PID.TID 0000.0001)                 1.850000000000000E+01,      /* J = 19 */
(PID.TID 0000.0001)                 1.950000000000000E+01,      /* J = 20 */
(PID.TID 0000.0001)                 2.050000000000000E+01,      /* J = 21 */
(PID.TID 0000.0001)                 2.150000000000000E+01,      /* J = 22 */
(PID.TID 0000.0001)                 2.250000000000000E+01,      /* J = 23 */
(PID.TID 0000.0001)                 2.350000000000000E+01,      /* J = 24 */
(PID.TID 0000.0001)                 2.450000000000000E+01,      /* J = 25 */
(PID.TID 0000.0001)                 2.550000000000000E+01,      /* J = 26 */
(PID.TID 0000.0001)                 2.650000000000000E+01,      /* J = 27 */
(PID.TID 0000.0001)                 2.750000000000000E+01,      /* J = 28 */
(PID.TID 0000.0001)                 2.850000000000000E+01,      /* J = 29 */
(PID.TID 0000.0001)                 2.950000000000000E+01,      /* J = 30 */
(PID.TID 0000.0001)                 3.050000000000000E+01,      /* J = 31 */
(PID.TID 0000.0001)                 3.150000000000000E+01,      /* J = 32 */
(PID.TID 0000.0001)                 3.250000000000000E+01,      /* J = 33 */
(PID.TID 0000.0001)                 3.350000000000000E+01,      /* J = 34 */
(PID.TID 0000.0001)                 3.450000000000000E+01,      /* J = 35 */
(PID.TID 0000.0001)                 3.550000000000000E+01,      /* J = 36 */
(PID.TID 0000.0001)                 3.650000000000000E+01,      /* J = 37 */
(PID.TID 0000.0001)                 3.750000000000000E+01,      /* J = 38 */
(PID.TID 0000.0001)                 3.850000000000000E+01,      /* J = 39 */
(PID.TID 0000.0001)                 3.950000000000000E+01,      /* J = 40 */
(PID.TID 0000.0001)                 4.050000000000000E+01,      /* J = 41 */
(PID.TID 0000.0001)                 4.150000000000000E+01,      /* J = 42 */
(PID.TID 0000.0001)                 4.250000000000000E+01,      /* J = 43 */
(PID.TID 0000.0001)                 4.350000000000000E+01,      /* J = 44 */
(PID.TID 0000.0001)                 4.450000000000000E+01,      /* J = 45 */
(PID.TID 0000.0001)                 4.550000000000000E+01,      /* J = 46 */
(PID.TID 0000.0001)                 4.650000000000000E+01,      /* J = 47 */
(PID.TID 0000.0001)                 4.750000000000000E+01,      /* J = 48 */
(PID.TID 0000.0001)                 4.850000000000000E+01,      /* J = 49 */
(PID.TID 0000.0001)                 4.950000000000000E+01,      /* J = 50 */
(PID.TID 0000.0001)                 5.050000000000000E+01,      /* J = 51 */
(PID.TID 0000.0001)                 5.150000000000000E+01,      /* J = 52 */
(PID.TID 0000.0001)                 5.250000000000000E+01,      /* J = 53 */
(PID.TID 0000.0001)                 5.350000000000000E+01,      /* J = 54 */
(PID.TID 0000.0001)                 5.450000000000000E+01,      /* J = 55 */
(PID.TID 0000.0001)                 5.550000000000000E+01,      /* J = 56 */
(PID.TID 0000.0001)                 5.650000000000000E+01,      /* J = 57 */
(PID.TID 0000.0001)                 5.750000000000000E+01,      /* J = 58 */
(PID.TID 0000.0001)                 5.850000000000000E+01,      /* J = 59 */
(PID.TID 0000.0001)                 5.950000000000000E+01       /* J = 60 */
(PID.TID 0000.0001)     ;
(PID.TID 0000.0001) rcoord =   /* P-point R coordinate (  units of r ) */
(PID.TID 0000.0001)                -2.500000000000000E+02,      /* K =  1 */
(PID.TID 0000.0001)                -7.500000000000000E+02,      /* K =  2 */
(PID.TID 0000.0001)                -1.250000000000000E+03,      /* K =  3 */
(PID.TID 0000.0001)                -1.750000000000000E+03       /* K =  4 */
(PID.TID 0000.0001)     ;
(PID.TID 0000.0001) rF =   /* W-Interf. R coordinate (  units of r ) */
(PID.TID 0000.0001)                 0.000000000000000E+00,      /* K =  1 */
(PID.TID 0000.0001)                -5.000000000000000E+02,      /* K =  2 */
(PID.TID 0000.0001)                -1.000000000000000E+03,      /* K =  3 */
(PID.TID 0000.0001)                -1.500000000000000E+03,      /* K =  4 */
(PID.TID 0000.0001)                -2.000000000000000E+03       /* K =  5 */
(PID.TID 0000.0001)     ;
(PID.TID 0000.0001) dxF =  /* dxF(:,1,:,1) ( m - cartesian, degrees - spherical ) */
(PID.TID 0000.0001)    60 @  1.111732400545204E+05              /* I =  1: 60 */
(PID.TID 0000.0001)     ;
(PID.TID 0000.0001) dxF =  /* dxF(1,:,1,:) ( m - cartesian, degrees - spherical ) */
(PID.TID 0000.0001)                 1.111732400545204E+05,      /* J =  1 */
(PID.TID 0000.0001)                 1.111393756086404E+05,      /* J =  2 */
(PID.TID 0000.0001)                 1.110716570323187E+05,      /* J =  3 */
(PID.TID 0000.0001)                 1.109701049532897E+05,      /* J =  4 */
(PID.TID 0000.0001)                 1.108347503053004E+05,      /* J =  5 */
(PID.TID 0000.0001)                 1.106656343186877E+05,      /* J =  6 */
(PID.TID 0000.0001)                 1.104628085078195E+05,      /* J =  7 */
(PID.TID 0000.0001)                 1.102263346554026E+05,      /* J =  8 */
(PID.TID 0000.0001)                 1.099562847936631E+05,      /* J =  9 */
(PID.TID 0000.0001)                 1.096527411824051E+05,      /* J = 10 */
(PID.TID 0000.0001)                 1.093157962839529E+05,      /* J = 11 */
(PID.TID 0000.0001)                 1.089455527349868E+05,      /* J = 12 */
(PID.TID 0000.0001)                 1.085421233152783E+05,      /* J = 13 */
(PID.TID 0000.0001)                 1.081056309133368E+05,      /* J = 14 */
(PID.TID 0000.0001)                 1.076362084889763E+05,      /* J = 15 */
(PID.TID 0000.0001)                 1.071339990328148E+05,      /* J = 16 */
(PID.TID 0000.0001)                 1.065991555227174E+05,      /* J = 17 */
(PID.TID 0000.0001)                 1.060318408771987E+05,      /* J = 18 */
(PID.TID 0000.0001)                 1.054322279057953E+05,      /* J = 19 */
(PID.TID 0000.0001)                 1.048004992564268E+05,      /* J = 20 */
(PID.TID 0000.0001)                 1.041368473597596E+05,      /* J = 21 */
(PID.TID 0000.0001)                 1.034414743705903E+05,      /* J = 22 */
(PID.TID 0000.0001)                 1.027145921062676E+05,      /* J = 23 */
(PID.TID 0000.0001)                 1.019564219821708E+05,      /* J = 24 */
(PID.TID 0000.0001)                 1.011671949442642E+05,      /* J = 25 */
(PID.TID 0000.0001)                 1.003471513987490E+05,      /* J = 26 */
(PID.TID 0000.0001)                 9.949654113883300E+04,      /* J = 27 */
(PID.TID 0000.0001)                 9.861562326864147E+04,      /* J = 28 */
(PID.TID 0000.0001)                 9.770466612429133E+04,      /* J = 29 */
(PID.TID 0000.0001)                 9.676394719215337E+04,      /* J = 30 */
(PID.TID 0000.0001)                 9.579375302432729E+04,      /* J = 31 */
(PID.TID 0000.0001)                 9.479437915135507E+04,      /* J = 32 */
(PID.TID 0000.0001)                 9.376612999219957E+04,      /* J = 33 */
(PID.TID 0000.0001)                 9.270931876151555E+04,      /* J = 34 */
(PID.TID 0000.0001)                 9.162426737424145E+04,      /* J = 35 */
(PID.TID 0000.0001)                 9.051130634754093E+04,      /* J = 36 */
(PID.TID 0000.0001)                 8.937077470012424E+04,      /* J = 37 */
(PID.TID 0000.0001)                 8.820301984897976E+04,      /* J = 38 */
(PID.TID 0000.0001)                 8.700839750354744E+04,      /* J = 39 */
(PID.TID 0000.0001)                 8.578727155736627E+04,      /* J = 40 */
(PID.TID 0000.0001)                 8.454001397722877E+04,      /* J = 41 */
(PID.TID 0000.0001)                 8.326700468987630E+04,      /* J = 42 */
(PID.TID 0000.0001)                 8.196863146626970E+04,      /* J = 43 */
(PID.TID 0000.0001)                 8.064528980347051E+04,      /* J = 44 */
(PID.TID 0000.0001)                 7.929738280416872E+04,      /* J = 45 */
(PID.TID 0000.0001)                 7.792532105389379E+04,      /* J = 46 */
(PID.TID 0000.0001)                 7.652952249594631E+04,      /* J = 47 */
(PID.TID 0000.0001)                 7.511041230408842E+04,      /* J = 48 */
(PID.TID 0000.0001)                 7.366842275303182E+04,      /* J = 49 */
(PID.TID 0000.0001)                 7.220399308676260E+04,      /* J = 50 */
(PID.TID 0000.0001)                 7.071756938474336E+04,      /* J = 51 */
(PID.TID 0000.0001)                 6.920960442603305E+04,      /* J = 52 */
(PID.TID 0000.0001)                 6.768055755136609E+04,      /* J = 53 */
(PID.TID 0000.0001)                 6.613089452323271E+04,      /* J = 54 */
(PID.TID 0000.0001)                 6.456108738400317E+04,      /* J = 55 */
(PID.TID 0000.0001)                 6.297161431213917E+04,      /* J = 56 */
(PID.TID 0000.0001)                 6.136295947653597E+04,      /* J = 57 */
(PID.TID 0000.0001)                 5.973561288903989E+04,      /* J = 58 */
(PID.TID 0000.0001)                 5.809007025518593E+04,      /* J = 59 */
(PID.TID 0000.0001)                 5.642683282320108E+04       /* J = 60 */
(PID.TID 0000.0001)     ;
(PID.TID 0000.0001) dyF =  /* dyF(:,1,:,1) ( m - cartesian, degrees - spherical ) */
(PID.TID 0000.0001)    60 @  1.111774733520388E+05              /* I =  1: 60 */
(PID.TID 0000.0001)     ;
(PID.TID 0000.0001) dyF =  /* dyF(1,:,1,:) ( m - cartesian, degrees - spherical ) */
(PID.TID 0000.0001)    60 @  1.111774733520388E+05              /* J =  1: 60 */
(PID.TID 0000.0001)     ;
(PID.TID 0000.0001) dxG =  /* dxG(:,1,:,1) ( m - cartesian, degrees - spherical ) */
(PID.TID 0000.0001)    60 @  1.111774733520388E+05              /* I =  1: 60 */
(PID.TID 0000.0001)     ;
(PID.TID 0000.0001) dxG =  /* dxG(1,:,1,:) ( m - cartesian, degrees - spherical ) */
(PID.TID 0000.0001)                 1.111774733520388E+05,      /* J =  1 */
(PID.TID 0000.0001)                 1.111605404843471E+05,      /* J =  2 */
(PID.TID 0000.0001)                 1.111097470391875E+05,      /* J =  3 */
(PID.TID 0000.0001)                 1.110251084887355E+05,      /* J =  4 */
(PID.TID 0000.0001)                 1.109066506147135E+05,      /* J =  5 */
(PID.TID 0000.0001)                 1.107544095005374E+05,      /* J =  6 */
(PID.TID 0000.0001)                 1.105684315203253E+05,      /* J =  7 */
(PID.TID 0000.0001)                 1.103487733247717E+05,      /* J =  8 */
(PID.TID 0000.0001)                 1.100955018238909E+05,      /* J =  9 */
(PID.TID 0000.0001)                 1.098086941666353E+05,      /* J = 10 */
(PID.TID 0000.0001)                 1.094884377173960E+05,      /* J = 11 */
(PID.TID 0000.0001)                 1.091348300293896E+05,      /* J = 12 */
(PID.TID 0000.0001)                 1.087479788149434E+05,      /* J = 13 */
(PID.TID 0000.0001)                 1.083280019126848E+05,      /* J = 14 */
(PID.TID 0000.0001)                 1.078750272516467E+05,      /* J = 15 */
(PID.TID 0000.0001)                 1.073891928122989E+05,      /* J = 16 */
(PID.TID 0000.0001)                 1.068706465845181E+05,      /* J = 17 */
(PID.TID 0000.0001)                 1.063195465225083E+05,      /* J = 18 */
(PID.TID 0000.0001)                 1.057360604966873E+05,      /* J = 19 */
(PID.TID 0000.0001)                 1.051203662425507E+05,      /* J = 20 */
(PID.TID 0000.0001)                 1.044726513065328E+05,      /* J = 21 */
(PID.TID 0000.0001)                 1.037931129888777E+05,      /* J = 22 */
(PID.TID 0000.0001)                 1.030819582835396E+05,      /* J = 23 */
(PID.TID 0000.0001)                 1.023394038151311E+05,      /* J = 24 */
(PID.TID 0000.0001)                 1.015656757729363E+05,      /* J = 25 */
(PID.TID 0000.0001)                 1.007610098420124E+05,      /* J = 26 */
(PID.TID 0000.0001)                 9.992565113139676E+04,      /* J = 27 */
(PID.TID 0000.0001)                 9.905985409944497E+04,      /* J = 28 */
(PID.TID 0000.0001)                 9.816388247632014E+04,      /* J = 29 */
(PID.TID 0000.0001)                 9.723800918365814E+04,      /* J = 30 */
(PID.TID 0000.0001)                 9.628251625143306E+04,      /* J = 31 */
(PID.TID 0000.0001)                 9.529769473204811E+04,      /* J = 32 */
(PID.TID 0000.0001)                 9.428384461167829E+04,      /* J = 33 */
(PID.TID 0000.0001)                 9.324127471889163E+04,      /* J = 34 */
(PID.TID 0000.0001)                 9.217030263057708E+04,      /* J = 35 */
(PID.TID 0000.0001)                 9.107125457520749E+04,      /* J = 36 */
(PID.TID 0000.0001)                 8.994446533346723E+04,      /* J = 37 */
(PID.TID 0000.0001)                 8.879027813627481E+04,      /* J = 38 */
(PID.TID 0000.0001)                 8.760904456023134E+04,      /* J = 39 */
(PID.TID 0000.0001)                 8.640112442052695E+04,      /* J = 40 */
(PID.TID 0000.0001)                 8.516688566133758E+04,      /* J = 41 */
(PID.TID 0000.0001)                 8.390670424374561E+04,      /* J = 42 */
(PID.TID 0000.0001)                 8.262096403121852E+04,      /* J = 43 */
(PID.TID 0000.0001)                 8.131005667268025E+04,      /* J = 44 */
(PID.TID 0000.0001)                 7.997438148321130E+04,      /* J = 45 */
(PID.TID 0000.0001)                 7.861434532241331E+04,      /* J = 46 */
(PID.TID 0000.0001)                 7.723036247047587E+04,      /* J = 47 */
(PID.TID 0000.0001)                 7.582285450198258E+04,      /* J = 48 */
(PID.TID 0000.0001)                 7.439225015749551E+04,      /* J = 49 */
(PID.TID 0000.0001)                 7.293898521295657E+04,      /* J = 50 */
(PID.TID 0000.0001)                 7.146350234694594E+04,      /* J = 51 */
(PID.TID 0000.0001)                 6.996625100583794E+04,      /* J = 52 */
(PID.TID 0000.0001)                 6.844768726689526E+04,      /* J = 53 */
(PID.TID 0000.0001)                 6.690827369934347E+04,      /* J = 54 */
(PID.TID 0000.0001)                 6.534847922346783E+04,      /* J = 55 */
(PID.TID 0000.0001)                 6.376877896777580E+04,      /* J = 56 */
(PID.TID 0000.0001)                 6.216965412426816E+04,      /* J = 57 */
(PID.TID 0000.0001)                 6.055159180186329E+04,      /* J = 58 */
(PID.TID 0000.0001)                 5.891508487801914E+04,      /* J = 59 */
(PID.TID 0000.0001)                 5.726063184859791E+04       /* J = 60 */
(PID.TID 0000.0001)     ;
(PID.TID 0000.0001) dyG =  /* dyG(:,1,:,1) ( m - cartesian, degrees - spherical ) */
(PID.TID 0000.0001)    60 @  1.111774733520388E+05              /* I =  1: 60 */
(PID.TID 0000.0001)     ;
(PID.TID 0000.0001) dyG =  /* dyG(1,:,1,:) ( m - cartesian, degrees - spherical ) */
(PID.TID 0000.0001)    60 @  1.111774733520388E+05              /* J =  1: 60 */
(PID.TID 0000.0001)     ;
(PID.TID 0000.0001) dxC =  /* dxC(:,1,:,1) ( m - cartesian, degrees - spherical ) */
(PID.TID 0000.0001)    60 @  1.111732400545204E+05              /* I =  1: 60 */
(PID.TID 0000.0001)     ;
(PID.TID 0000.0001) dxC =  /* dxC(1,:,1,:) ( m - cartesian, degrees - spherical ) */
(PID.TID 0000.0001)                 1.111732400545204E+05,      /* J =  1 */
(PID.TID 0000.0001)                 1.111393756086404E+05,      /* J =  2 */
(PID.TID 0000.0001)                 1.110716570323187E+05,      /* J =  3 */
(PID.TID 0000.0001)                 1.109701049532897E+05,      /* J =  4 */
(PID.TID 0000.0001)                 1.108347503053004E+05,      /* J =  5 */
(PID.TID 0000.0001)                 1.106656343186877E+05,      /* J =  6 */
(PID.TID 0000.0001)                 1.104628085078195E+05,      /* J =  7 */
(PID.TID 0000.0001)                 1.102263346554026E+05,      /* J =  8 */
(PID.TID 0000.0001)                 1.099562847936631E+05,      /* J =  9 */
(PID.TID 0000.0001)                 1.096527411824051E+05,      /* J = 10 */
(PID.TID 0000.0001)                 1.093157962839529E+05,      /* J = 11 */
(PID.TID 0000.0001)                 1.089455527349868E+05,      /* J = 12 */
(PID.TID 0000.0001)                 1.085421233152783E+05,      /* J = 13 */
(PID.TID 0000.0001)                 1.081056309133368E+05,      /* J = 14 */
(PID.TID 0000.0001)                 1.076362084889763E+05,      /* J = 15 */
(PID.TID 0000.0001)                 1.071339990328148E+05,      /* J = 16 */
(PID.TID 0000.0001)                 1.065991555227174E+05,      /* J = 17 */
(PID.TID 0000.0001)                 1.060318408771987E+05,      /* J = 18 */
(PID.TID 0000.0001)                 1.054322279057953E+05,      /* J = 19 */
(PID.TID 0000.0001)                 1.048004992564268E+05,      /* J = 20 */
(PID.TID 0000.0001)                 1.041368473597596E+05,      /* J = 21 */
(PID.TID 0000.0001)                 1.034414743705903E+05,      /* J = 22 */
(PID.TID 0000.0001)                 1.027145921062676E+05,      /* J = 23 */
(PID.TID 0000.0001)                 1.019564219821708E+05,      /* J = 24 */
(PID.TID 0000.0001)                 1.011671949442642E+05,      /* J = 25 */
(PID.TID 0000.0001)                 1.003471513987490E+05,      /* J = 26 */
(PID.TID 0000.0001)                 9.949654113883300E+04,      /* J = 27 */
(PID.TID 0000.0001)                 9.861562326864147E+04,      /* J = 28 */
(PID.TID 0000.0001)                 9.770466612429133E+04,      /* J = 29 */
(PID.TID 0000.0001)                 9.676394719215337E+04,      /* J = 30 */
(PID.TID 0000.0001)                 9.579375302432729E+04,      /* J = 31 */
(PID.TID 0000.0001)                 9.479437915135507E+04,      /* J = 32 */
(PID.TID 0000.0001)                 9.376612999219957E+04,      /* J = 33 */
(PID.TID 0000.0001)                 9.270931876151555E+04,      /* J = 34 */
(PID.TID 0000.0001)                 9.162426737424145E+04,      /* J = 35 */
(PID.TID 0000.0001)                 9.051130634754093E+04,      /* J = 36 */
(PID.TID 0000.0001)                 8.937077470012424E+04,      /* J = 37 */
(PID.TID 0000.0001)                 8.820301984897976E+04,      /* J = 38 */
(PID.TID 0000.0001)                 8.700839750354744E+04,      /* J = 39 */
(PID.TID 0000.0001)                 8.578727155736627E+04,      /* J = 40 */
(PID.TID 0000.0001)                 8.454001397722877E+04,      /* J = 41 */
(PID.TID 0000.0001)                 8.326700468987630E+04,      /* J = 42 */
(PID.TID 0000.0001)                 8.196863146626970E+04,      /* J = 43 */
(PID.TID 0000.0001)                 8.064528980347051E+04,      /* J = 44 */
(PID.TID 0000.0001)                 7.929738280416872E+04,      /* J = 45 */
(PID.TID 0000.0001)                 7.792532105389379E+04,      /* J = 46 */
(PID.TID 0000.0001)                 7.652952249594631E+04,      /* J = 47 */
(PID.TID 0000.0001)                 7.511041230408842E+04,      /* J = 48 */
(PID.TID 0000.0001)                 7.366842275303182E+04,      /* J = 49 */
(PID.TID 0000.0001)                 7.220399308676260E+04,      /* J = 50 */
(PID.TID 0000.0001)                 7.071756938474336E+04,      /* J = 51 */
(PID.TID 0000.0001)                 6.920960442603305E+04,      /* J = 52 */
(PID.TID 0000.0001)                 6.768055755136609E+04,      /* J = 53 */
(PID.TID 0000.0001)                 6.613089452323271E+04,      /* J = 54 */
(PID.TID 0000.0001)                 6.456108738400317E+04,      /* J = 55 */
(PID.TID 0000.0001)                 6.297161431213917E+04,      /* J = 56 */
(PID.TID 0000.0001)                 6.136295947653597E+04,      /* J = 57 */
(PID.TID 0000.0001)                 5.973561288903989E+04,      /* J = 58 */
(PID.TID 0000.0001)                 5.809007025518593E+04,      /* J = 59 */
(PID.TID 0000.0001)                 5.642683282320108E+04       /* J = 60 */
(PID.TID 0000.0001)     ;
(PID.TID 0000.0001) dyC =  /* dyC(:,1,:,1) ( m - cartesian, degrees - spherical ) */
(PID.TID 0000.0001)    60 @  1.111774733520388E+05              /* I =  1: 60 */
(PID.TID 0000.0001)     ;
(PID.TID 0000.0001) dyC =  /* dyC(1,:,1,:) ( m - cartesian, degrees - spherical ) */
(PID.TID 0000.0001)    60 @  1.111774733520388E+05              /* J =  1: 60 */
(PID.TID 0000.0001)     ;
(PID.TID 0000.0001) dxV =  /* dxV(:,1,:,1) ( m - cartesian, degrees - spherical ) */
(PID.TID 0000.0001)    60 @  1.111774733520388E+05              /* I =  1: 60 */
(PID.TID 0000.0001)     ;
(PID.TID 0000.0001) dxV =  /* dxV(1,:,1,:) ( m - cartesian, degrees - spherical ) */
(PID.TID 0000.0001)                 1.111774733520388E+05,      /* J =  1 */
(PID.TID 0000.0001)                 1.111605404843471E+05,      /* J =  2 */
(PID.TID 0000.0001)                 1.111097470391875E+05,      /* J =  3 */
(PID.TID 0000.0001)                 1.110251084887355E+05,      /* J =  4 */
(PID.TID 0000.0001)                 1.109066506147135E+05,      /* J =  5 */
(PID.TID 0000.0001)                 1.107544095005374E+05,      /* J =  6 */
(PID.TID 0000.0001)                 1.105684315203253E+05,      /* J =  7 */
(PID.TID 0000.0001)                 1.103487733247717E+05,      /* J =  8 */
(PID.TID 0000.0001)                 1.100955018238909E+05,      /* J =  9 */
(PID.TID 0000.0001)                 1.098086941666353E+05,      /* J = 10 */
(PID.TID 0000.0001)                 1.094884377173960E+05,      /* J = 11 */
(PID.TID 0000.0001)                 1.091348300293896E+05,      /* J = 12 */
(PID.TID 0000.0001)                 1.087479788149434E+05,      /* J = 13 */
(PID.TID 0000.0001)                 1.083280019126848E+05,      /* J = 14 */
(PID.TID 0000.0001)                 1.078750272516467E+05,      /* J = 15 */
(PID.TID 0000.0001)                 1.073891928122989E+05,      /* J = 16 */
(PID.TID 0000.0001)                 1.068706465845181E+05,      /* J = 17 */
(PID.TID 0000.0001)                 1.063195465225083E+05,      /* J = 18 */
(PID.TID 0000.0001)                 1.057360604966873E+05,      /* J = 19 */
(PID.TID 0000.0001)                 1.051203662425507E+05,      /* J = 20 */
(PID.TID 0000.0001)                 1.044726513065328E+05,      /* J = 21 */
(PID.TID 0000.0001)                 1.037931129888777E+05,      /* J = 22 */
(PID.TID 0000.0001)                 1.030819582835396E+05,      /* J = 23 */
(PID.TID 0000.0001)                 1.023394038151311E+05,      /* J = 24 */
(PID.TID 0000.0001)                 1.015656757729363E+05,      /* J = 25 */
(PID.TID 0000.0001)                 1.007610098420124E+05,      /* J = 26 */
(PID.TID 0000.0001)                 9.992565113139676E+04,      /* J = 27 */
(PID.TID 0000.0001)                 9.905985409944497E+04,      /* J = 28 */
(PID.TID 0000.0001)                 9.816388247632014E+04,      /* J = 29 */
(PID.TID 0000.0001)                 9.723800918365814E+04,      /* J = 30 */
(PID.TID 0000.0001)                 9.628251625143306E+04,      /* J = 31 */
(PID.TID 0000.0001)                 9.529769473204811E+04,      /* J = 32 */
(PID.TID 0000.0001)                 9.428384461167829E+04,      /* J = 33 */
(PID.TID 0000.0001)                 9.324127471889163E+04,      /* J = 34 */
(PID.TID 0000.0001)                 9.217030263057708E+04,      /* J = 35 */
(PID.TID 0000.0001)                 9.107125457520749E+04,      /* J = 36 */
(PID.TID 0000.0001)                 8.994446533346723E+04,      /* J = 37 */
(PID.TID 0000.0001)                 8.879027813627481E+04,      /* J = 38 */
(PID.TID 0000.0001)                 8.760904456023134E+04,      /* J = 39 */
(PID.TID 0000.0001)                 8.640112442052695E+04,      /* J = 40 */
(PID.TID 0000.0001)                 8.516688566133758E+04,      /* J = 41 */
(PID.TID 0000.0001)                 8.390670424374561E+04,      /* J = 42 */
(PID.TID 0000.0001)                 8.262096403121852E+04,      /* J = 43 */
(PID.TID 0000.0001)                 8.131005667268025E+04,      /* J = 44 */
(PID.TID 0000.0001)                 7.997438148321130E+04,      /* J = 45 */
(PID.TID 0000.0001)                 7.861434532241331E+04,      /* J = 46 */
(PID.TID 0000.0001)                 7.723036247047587E+04,      /* J = 47 */
(PID.TID 0000.0001)                 7.582285450198258E+04,      /* J = 48 */
(PID.TID 0000.0001)                 7.439225015749551E+04,      /* J = 49 */
(PID.TID 0000.0001)                 7.293898521295657E+04,      /* J = 50 */
(PID.TID 0000.0001)                 7.146350234694594E+04,      /* J = 51 */
(PID.TID 0000.0001)                 6.996625100583794E+04,      /* J = 52 */
(PID.TID 0000.0001)                 6.844768726689526E+04,      /* J = 53 */
(PID.TID 0000.0001)                 6.690827369934347E+04,      /* J = 54 */
(PID.TID 0000.0001)                 6.534847922346783E+04,      /* J = 55 */
(PID.TID 0000.0001)                 6.376877896777580E+04,      /* J = 56 */
(PID.TID 0000.0001)                 6.216965412426816E+04,      /* J = 57 */
(PID.TID 0000.0001)                 6.055159180186329E+04,      /* J = 58 */
(PID.TID 0000.0001)                 5.891508487801914E+04,      /* J = 59 */
(PID.TID 0000.0001)                 5.726063184859791E+04       /* J = 60 */
(PID.TID 0000.0001)     ;
(PID.TID 0000.0001) dyU =  /* dyU(:,1,:,1) ( m - cartesian, degrees - spherical ) */
(PID.TID 0000.0001)    60 @  1.111774733520388E+05              /* I =  1: 60 */
(PID.TID 0000.0001)     ;
(PID.TID 0000.0001) dyU =  /* dyU(1,:,1,:) ( m - cartesian, degrees - spherical ) */
(PID.TID 0000.0001)    60 @  1.111774733520388E+05              /* J =  1: 60 */
(PID.TID 0000.0001)     ;
(PID.TID 0000.0001) rA =  /* rA(:,1,:,1) ( m - cartesian, degrees - spherical ) */
(PID.TID 0000.0001)    60 @  1.235980305675594E+10              /* I =  1: 60 */
(PID.TID 0000.0001)     ;
(PID.TID 0000.0001) rA =  /* rA(1,:,1,:) ( m - cartesian, degrees - spherical ) */
(PID.TID 0000.0001)                 1.235980305675594E+10,      /* J =  1 */
(PID.TID 0000.0001)                 1.235603814101275E+10,      /* J =  2 */
(PID.TID 0000.0001)                 1.234850945635619E+10,      /* J =  3 */
(PID.TID 0000.0001)                 1.233721929609651E+10,      /* J =  4 */
(PID.TID 0000.0001)                 1.232217109932592E+10,      /* J =  5 */
(PID.TID 0000.0001)                 1.230336944987093E+10,      /* J =  6 */
(PID.TID 0000.0001)                 1.228082007489607E+10,      /* J =  7 */
(PID.TID 0000.0001)                 1.225452984315944E+10,      /* J =  8 */
(PID.TID 0000.0001)                 1.222450676292028E+10,      /* J =  9 */
(PID.TID 0000.0001)                 1.219075997949969E+10,      /* J = 10 */
(PID.TID 0000.0001)                 1.215329977249479E+10,      /* J = 11 */
(PID.TID 0000.0001)                 1.211213755264755E+10,      /* J = 12 */
(PID.TID 0000.0001)                 1.206728585836883E+10,      /* J = 13 */
(PID.TID 0000.0001)                 1.201875835191924E+10,      /* J = 14 */
(PID.TID 0000.0001)                 1.196656981524731E+10,      /* J = 15 */
(PID.TID 0000.0001)                 1.191073614548695E+10,      /* J = 16 */
(PID.TID 0000.0001)                 1.185127435011475E+10,      /* J = 17 */
(PID.TID 0000.0001)                 1.178820254176959E+10,      /* J = 18 */
(PID.TID 0000.0001)                 1.172153993273540E+10,      /* J = 19 */
(PID.TID 0000.0001)                 1.165130682908852E+10,      /* J = 20 */
(PID.TID 0000.0001)                 1.157752462451283E+10,      /* J = 21 */
(PID.TID 0000.0001)                 1.150021579378243E+10,      /* J = 22 */
(PID.TID 0000.0001)                 1.141940388591623E+10,      /* J = 23 */
(PID.TID 0000.0001)                 1.133511351700410E+10,      /* J = 24 */
(PID.TID 0000.0001)                 1.124737036270894E+10,      /* J = 25 */
(PID.TID 0000.0001)                 1.115620115044565E+10,      /* J = 26 */
(PID.TID 0000.0001)                 1.106163365123932E+10,      /* J = 27 */
(PID.TID 0000.0001)                 1.096369667126643E+10,      /* J = 28 */
(PID.TID 0000.0001)                 1.086242004307973E+10,      /* J = 29 */
(PID.TID 0000.0001)                 1.075783461652121E+10,      /* J = 30 */
(PID.TID 0000.0001)                 1.064997224932516E+10,      /* J = 31 */
(PID.TID 0000.0001)                 1.053886579741329E+10,      /* J = 32 */
(PID.TID 0000.0001)                 1.042454910488724E+10,      /* J = 33 */
(PID.TID 0000.0001)                 1.030705699371897E+10,      /* J = 34 */
(PID.TID 0000.0001)                 1.018642525314365E+10,      /* J = 35 */
(PID.TID 0000.0001)                 1.006269062875823E+10,      /* J = 36 */
(PID.TID 0000.0001)                 9.935890811327755E+09,      /* J = 37 */
(PID.TID 0000.0001)                 9.806064425305014E+09,      /* J = 38 */
(PID.TID 0000.0001)                 9.673251017064783E+09,      /* J = 39 */
(PID.TID 0000.0001)                 9.537491042857990E+09,      /* J = 40 */
(PID.TID 0000.0001)                 9.398825856487732E+09,      /* J = 41 */
(PID.TID 0000.0001)                 9.257297696713116E+09,      /* J = 42 */
(PID.TID 0000.0001)                 9.112949674382626E+09,      /* J = 43 */
(PID.TID 0000.0001)                 8.965825759302135E+09,      /* J = 44 */
(PID.TID 0000.0001)                 8.815970766841572E+09,      /* J = 45 */
(PID.TID 0000.0001)                 8.663430344283144E+09,      /* J = 46 */
(PID.TID 0000.0001)                 8.508250956917313E+09,      /* J = 47 */
(PID.TID 0000.0001)                 8.350479873888727E+09,      /* J = 48 */
(PID.TID 0000.0001)                 8.190165153797588E+09,      /* J = 49 */
(PID.TID 0000.0001)                 8.027355630060796E+09,      /* J = 50 */
(PID.TID 0000.0001)                 7.862100896036295E+09,      /* J = 51 */
(PID.TID 0000.0001)                 7.694451289916979E+09,      /* J = 52 */
(PID.TID 0000.0001)                 7.524457879396883E+09,      /* J = 53 */
(PID.TID 0000.0001)                 7.352172446115759E+09,      /* J = 54 */
(PID.TID 0000.0001)                 7.177647469885406E+09,      /* J = 55 */
(PID.TID 0000.0001)                 7.000936112704293E+09,      /* J = 56 */
(PID.TID 0000.0001)                 6.822092202563660E+09,      /* J = 57 */
(PID.TID 0000.0001)                 6.641170217051035E+09,      /* J = 58 */
(PID.TID 0000.0001)                 6.458225266755835E+09,      /* J = 59 */
(PID.TID 0000.0001)                 6.273313078482070E+09       /* J = 60 */
(PID.TID 0000.0001)     ;
(PID.TID 0000.0001) rAw =  /* rAw(:,1,:,1) ( m - cartesian, degrees - spherical ) */
(PID.TID 0000.0001)    60 @  1.235980305675594E+10              /* I =  1: 60 */
(PID.TID 0000.0001)     ;
(PID.TID 0000.0001) rAw =  /* rAw(1,:,1,:) ( m - cartesian, degrees - spherical ) */
(PID.TID 0000.0001)                 1.235980305675594E+10,      /* J =  1 */
(PID.TID 0000.0001)                 1.235603814101275E+10,      /* J =  2 */
(PID.TID 0000.0001)                 1.234850945635619E+10,      /* J =  3 */
(PID.TID 0000.0001)                 1.233721929609651E+10,      /* J =  4 */
(PID.TID 0000.0001)                 1.232217109932592E+10,      /* J =  5 */
(PID.TID 0000.0001)                 1.230336944987093E+10,      /* J =  6 */
(PID.TID 0000.0001)                 1.228082007489607E+10,      /* J =  7 */
(PID.TID 0000.0001)                 1.225452984315944E+10,      /* J =  8 */
(PID.TID 0000.0001)                 1.222450676292028E+10,      /* J =  9 */
(PID.TID 0000.0001)                 1.219075997949969E+10,      /* J = 10 */
(PID.TID 0000.0001)                 1.215329977249479E+10,      /* J = 11 */
(PID.TID 0000.0001)                 1.211213755264755E+10,      /* J = 12 */
(PID.TID 0000.0001)                 1.206728585836883E+10,      /* J = 13 */
(PID.TID 0000.0001)                 1.201875835191924E+10,      /* J = 14 */
(PID.TID 0000.0001)                 1.196656981524731E+10,      /* J = 15 */
(PID.TID 0000.0001)                 1.191073614548695E+10,      /* J = 16 */
(PID.TID 0000.0001)                 1.185127435011475E+10,      /* J = 17 */
(PID.TID 0000.0001)                 1.178820254176959E+10,      /* J = 18 */
(PID.TID 0000.0001)                 1.172153993273540E+10,      /* J = 19 */
(PID.TID 0000.0001)                 1.165130682908852E+10,      /* J = 20 */
(PID.TID 0000.0001)                 1.157752462451283E+10,      /* J = 21 */
(PID.TID 0000.0001)                 1.150021579378243E+10,      /* J = 22 */
(PID.TID 0000.0001)                 1.141940388591623E+10,      /* J = 23 */
(PID.TID 0000.0001)                 1.133511351700410E+10,      /* J = 24 */
(PID.TID 0000.0001)                 1.124737036270894E+10,      /* J = 25 */
(PID.TID 0000.0001)                 1.115620115044565E+10,      /* J = 26 */
(PID.TID 0000.0001)                 1.106163365123932E+10,      /* J = 27 */
(PID.TID 0000.0001)                 1.096369667126643E+10,      /* J = 28 */
(PID.TID 0000.0001)                 1.086242004307973E+10,      /* J = 29 */
(PID.TID 0000.0001)                 1.075783461652121E+10,      /* J = 30 */
(PID.TID 0000.0001)                 1.064997224932516E+10,      /* J = 31 */
(PID.TID 0000.0001)                 1.053886579741329E+10,      /* J = 32 */
(PID.TID 0000.0001)                 1.042454910488724E+10,      /* J = 33 */
(PID.TID 0000.0001)                 1.030705699371897E+10,      /* J = 34 */
(PID.TID 0000.0001)                 1.018642525314365E+10,      /* J = 35 */
(PID.TID 0000.0001)                 1.006269062875823E+10,      /* J = 36 */
(PID.TID 0000.0001)                 9.935890811327755E+09,      /* J = 37 */
(PID.TID 0000.0001)                 9.806064425305014E+09,      /* J = 38 */
(PID.TID 0000.0001)                 9.673251017064783E+09,      /* J = 39 */
(PID.TID 0000.0001)                 9.537491042857990E+09,      /* J = 40 */
(PID.TID 0000.0001)                 9.398825856487732E+09,      /* J = 41 */
(PID.TID 0000.0001)                 9.257297696713116E+09,      /* J = 42 */
(PID.TID 0000.0001)                 9.112949674382626E+09,      /* J = 43 */
(PID.TID 0000.0001)                 8.965825759302135E+09,      /* J = 44 */
(PID.TID 0000.0001)                 8.815970766841572E+09,      /* J = 45 */
(PID.TID 0000.0001)                 8.663430344283144E+09,      /* J = 46 */
(PID.TID 0000.0001)                 8.508250956917313E+09,      /* J = 47 */
(PID.TID 0000.0001)                 8.350479873888727E+09,      /* J = 48 */
(PID.TID 0000.0001)                 8.190165153797588E+09,      /* J = 49 */
(PID.TID 0000.0001)                 8.027355630060796E+09,      /* J = 50 */
(PID.TID 0000.0001)                 7.862100896036295E+09,      /* J = 51 */
(PID.TID 0000.0001)                 7.694451289916979E+09,      /* J = 52 */
(PID.TID 0000.0001)                 7.524457879396883E+09,      /* J = 53 */
(PID.TID 0000.0001)                 7.352172446115759E+09,      /* J = 54 */
(PID.TID 0000.0001)                 7.177647469885406E+09,      /* J = 55 */
(PID.TID 0000.0001)                 7.000936112704293E+09,      /* J = 56 */
(PID.TID 0000.0001)                 6.822092202563660E+09,      /* J = 57 */
(PID.TID 0000.0001)                 6.641170217051035E+09,      /* J = 58 */
(PID.TID 0000.0001)                 6.458225266755835E+09,      /* J = 59 */
(PID.TID 0000.0001)                 6.273313078482070E+09       /* J = 60 */
(PID.TID 0000.0001)     ;
(PID.TID 0000.0001) rAs =  /* rAs(:,1,:,1) ( m - cartesian, degrees - spherical ) */
(PID.TID 0000.0001)    60 @  1.236027369810437E+10              /* I =  1: 60 */
(PID.TID 0000.0001)     ;
(PID.TID 0000.0001) rAs =  /* rAs(1,:,1,:) ( m - cartesian, degrees - spherical ) */
(PID.TID 0000.0001)                 1.236027369810437E+10,      /* J =  1 */
(PID.TID 0000.0001)                 1.235839116855182E+10,      /* J =  2 */
(PID.TID 0000.0001)                 1.235274415333090E+10,      /* J =  3 */
(PID.TID 0000.0001)                 1.234333437257717E+10,      /* J =  4 */
(PID.TID 0000.0001)                 1.233016469260097E+10,      /* J =  5 */
(PID.TID 0000.0001)                 1.231323912501442E+10,      /* J =  6 */
(PID.TID 0000.0001)                 1.229256282550938E+10,      /* J =  7 */
(PID.TID 0000.0001)                 1.226814209228693E+10,      /* J =  8 */
(PID.TID 0000.0001)                 1.223998436413906E+10,      /* J =  9 */
(PID.TID 0000.0001)                 1.220809821818243E+10,      /* J = 10 */
(PID.TID 0000.0001)                 1.217249336724606E+10,      /* J = 11 */
(PID.TID 0000.0001)                 1.213318065691243E+10,      /* J = 12 */
(PID.TID 0000.0001)                 1.209017206221395E+10,      /* J = 13 */
(PID.TID 0000.0001)                 1.204348068398519E+10,      /* J = 14 */
(PID.TID 0000.0001)                 1.199312074487229E+10,      /* J = 15 */
(PID.TID 0000.0001)                 1.193910758500048E+10,      /* J = 16 */
(PID.TID 0000.0001)                 1.188145765730162E+10,      /* J = 17 */
(PID.TID 0000.0001)                 1.182018852250200E+10,      /* J = 18 */
(PID.TID 0000.0001)                 1.175531884377377E+10,      /* J = 19 */
(PID.TID 0000.0001)                 1.168686838104932E+10,      /* J = 20 */
(PID.TID 0000.0001)                 1.161485798500284E+10,      /* J = 21 */
(PID.TID 0000.0001)                 1.153930959069844E+10,      /* J = 22 */
(PID.TID 0000.0001)                 1.146024621090887E+10,      /* J = 23 */
(PID.TID 0000.0001)                 1.137769192910563E+10,      /* J = 24 */
(PID.TID 0000.0001)                 1.129167189212254E+10,      /* J = 25 */
(PID.TID 0000.0001)                 1.120221230249630E+10,      /* J = 26 */
(PID.TID 0000.0001)                 1.110934041048438E+10,      /* J = 27 */
(PID.TID 0000.0001)                 1.101308450576489E+10,      /* J = 28 */
(PID.TID 0000.0001)                 1.091347390881878E+10,      /* J = 29 */
(PID.TID 0000.0001)                 1.081053896199884E+10,      /* J = 30 */
(PID.TID 0000.0001)                 1.070431102028696E+10,      /* J = 31 */
(PID.TID 0000.0001)                 1.059482244174345E+10,      /* J = 32 */
(PID.TID 0000.0001)                 1.048210657764977E+10,      /* J = 33 */
(PID.TID 0000.0001)                 1.036619776235009E+10,      /* J = 34 */
(PID.TID 0000.0001)                 1.024713130279232E+10,      /* J = 35 */
(PID.TID 0000.0001)                 1.012494346777367E+10,      /* J = 36 */
(PID.TID 0000.0001)                 9.999671476892128E+09,      /* J = 37 */
(PID.TID 0000.0001)                 9.871353489209736E+09,      /* J = 38 */
(PID.TID 0000.0001)                 9.740028591628582E+09,      /* J = 39 */
(PID.TID 0000.0001)                 9.605736786984583E+09,      /* J = 40 */
(PID.TID 0000.0001)                 9.468518981862526E+09,      /* J = 41 */
(PID.TID 0000.0001)                 9.328416974134932E+09,      /* J = 42 */
(PID.TID 0000.0001)                 9.185473440230612E+09,      /* J = 43 */
(PID.TID 0000.0001)                 9.039731922134659E+09,      /* J = 44 */
(PID.TID 0000.0001)                 8.891236814125492E+09,      /* J = 45 */
(PID.TID 0000.0001)                 8.740033349251337E+09,      /* J = 46 */
(PID.TID 0000.0001)                 8.586167585552398E+09,      /* J = 47 */
(PID.TID 0000.0001)                 8.429686392030826E+09,      /* J = 48 */
(PID.TID 0000.0001)                 8.270637434373983E+09,      /* J = 49 */
(PID.TID 0000.0001)                 8.109069160435271E+09,      /* J = 50 */
(PID.TID 0000.0001)                 7.945030785475921E+09,      /* J = 51 */
(PID.TID 0000.0001)                 7.778572277174073E+09,      /* J = 52 */
(PID.TID 0000.0001)                 7.609744340403877E+09,      /* J = 53 */
(PID.TID 0000.0001)                 7.438598401790298E+09,      /* J = 54 */
(PID.TID 0000.0001)                 7.265186594044308E+09,      /* J = 55 */
(PID.TID 0000.0001)                 7.089561740082280E+09,      /* J = 56 */
(PID.TID 0000.0001)                 6.911777336936097E+09,      /* J = 57 */
(PID.TID 0000.0001)                 6.731887539457151E+09,      /* J = 58 */
(PID.TID 0000.0001)                 6.549947143820513E+09,      /* J = 59 */
(PID.TID 0000.0001)                 6.366011570833060E+09       /* J = 60 */
(PID.TID 0000.0001)     ;
(PID.TID 0000.0001) 
(PID.TID 0000.0001) // =======================================================
(PID.TID 0000.0001) // Field Initial Temperature at iteration          1
(PID.TID 0000.0001) // CMIN =          2.000000000000000E+01
(PID.TID 0000.0001) // CMAX =          2.000000000000000E+01
(PID.TID 0000.0001) // CINT =          0.000000000000000E+00
(PID.TID 0000.0001) // SYMBOLS (CMIN->CMAX): -abcdefghijklmnopqrstuvwxyz+
(PID.TID 0000.0001) //                  0.0: .
(PID.TID 0000.0001) // RANGE I (Lo:Hi:Step):(   1:  60:   1)
(PID.TID 0000.0001) // RANGE J (Lo:Hi:Step):(  60:   1:  -1)
(PID.TID 0000.0001) // RANGE K (Lo:Hi:Step):(   1:   1:   1)
(PID.TID 0000.0001) // =======================================================
(PID.TID 0000.0001) K =   1
(PID.TID 0000.0001)                I=10      I=20      I=30      I=40      I=50      I=60
(PID.TID 0000.0001) |--J--|123456789|123456789|123456789|123456789|123456789|123456789|
(PID.TID 0000.0001)     60 ............................................................
(PID.TID 0000.0001)     59 -----------------------------------------------------------.
(PID.TID 0000.0001)     58 -----------------------------------------------------------.
(PID.TID 0000.0001)     57 -----------------------------------------------------------.
(PID.TID 0000.0001)     56 -----------------------------------------------------------.
(PID.TID 0000.0001)     55 -----------------------------------------------------------.
(PID.TID 0000.0001)     54 -----------------------------------------------------------.
(PID.TID 0000.0001)     53 -----------------------------------------------------------.
(PID.TID 0000.0001)     52 -----------------------------------------------------------.
(PID.TID 0000.0001)     51 -----------------------------------------------------------.
(PID.TID 0000.0001)     50 -----------------------------------------------------------.
(PID.TID 0000.0001)     49 -----------------------------------------------------------.
(PID.TID 0000.0001)     48 -----------------------------------------------------------.
(PID.TID 0000.0001)     47 -----------------------------------------------------------.
(PID.TID 0000.0001)     46 -----------------------------------------------------------.
(PID.TID 0000.0001)     45 -----------------------------------------------------------.
(PID.TID 0000.0001)     44 -----------------------------------------------------------.
(PID.TID 0000.0001)     43 -----------------------------------------------------------.
(PID.TID 0000.0001)     42 -----------------------------------------------------------.
(PID.TID 0000.0001)     41 -----------------------------------------------------------.
(PID.TID 0000.0001)     40 -----------------------------------------------------------.
(PID.TID 0000.0001)     39 -----------------------------------------------------------.
(PID.TID 0000.0001)     38 -----------------------------------------------------------.
(PID.TID 0000.0001)     37 -----------------------------------------------------------.
(PID.TID 0000.0001)     36 -----------------------------------------------------------.
(PID.TID 0000.0001)     35 -----------------------------------------------------------.
(PID.TID 0000.0001)     34 -----------------------------------------------------------.
(PID.TID 0000.0001)     33 -----------------------------------------------------------.
(PID.TID 0000.0001)     32 -----------------------------------------------------------.
(PID.TID 0000.0001)     31 -----------------------------------------------------------.
(PID.TID 0000.0001)     30 -----------------------------------------------------------.
(PID.TID 0000.0001)     29 -----------------------------------------------------------.
(PID.TID 0000.0001)     28 -----------------------------------------------------------.
(PID.TID 0000.0001)     27 -----------------------------------------------------------.
(PID.TID 0000.0001)     26 -----------------------------------------------------------.
(PID.TID 0000.0001)     25 -----------------------------------------------------------.
(PID.TID 0000.0001)     24 -----------------------------------------------------------.
(PID.TID 0000.0001)     23 -----------------------------------------------------------.
(PID.TID 0000.0001)     22 -----------------------------------------------------------.
(PID.TID 0000.0001)     21 -----------------------------------------------------------.
(PID.TID 0000.0001)     20 -----------------------------------------------------------.
(PID.TID 0000.0001)     19 -----------------------------------------------------------.
(PID.TID 0000.0001)     18 -----------------------------------------------------------.
(PID.TID 0000.0001)     17 -----------------------------------------------------------.
(PID.TID 0000.0001)     16 -----------------------------------------------------------.
(PID.TID 0000.0001)     15 -----------------------------------------------------------.
(PID.TID 0000.0001)     14 -----------------------------------------------------------.
(PID.TID 0000.0001)     13 -----------------------------------------------------------.
(PID.TID 0000.0001)     12 -----------------------------------------------------------.
(PID.TID 0000.0001)     11 -----------------------------------------------------------.
(PID.TID 0000.0001)     10 -----------------------------------------------------------.
(PID.TID 0000.0001)      9 -----------------------------------------------------------.
(PID.TID 0000.0001)      8 -----------------------------------------------------------.
(PID.TID 0000.0001)      7 -----------------------------------------------------------.
(PID.TID 0000.0001)      6 -----------------------------------------------------------.
(PID.TID 0000.0001)      5 -----------------------------------------------------------.
(PID.TID 0000.0001)      4 -----------------------------------------------------------.
(PID.TID 0000.0001)      3 -----------------------------------------------------------.
(PID.TID 0000.0001)      2 -----------------------------------------------------------.
(PID.TID 0000.0001)      1 -----------------------------------------------------------.
(PID.TID 0000.0001) // =======================================================
(PID.TID 0000.0001) // END OF FIELD                                          =
(PID.TID 0000.0001) // =======================================================
(PID.TID 0000.0001) 
(PID.TID 0000.0001) // =======================================================
(PID.TID 0000.0001) // Field Initial Salinity at iteration          1
(PID.TID 0000.0001) // CMIN =          1.000000000000000E+01
(PID.TID 0000.0001) // CMAX =          1.000000000000000E+01
(PID.TID 0000.0001) // CINT =          0.000000000000000E+00
(PID.TID 0000.0001) // SYMBOLS (CMIN->CMAX): -abcdefghijklmnopqrstuvwxyz+
(PID.TID 0000.0001) //                  0.0: .
(PID.TID 0000.0001) // RANGE I (Lo:Hi:Step):(   1:  60:   1)
(PID.TID 0000.0001) // RANGE J (Lo:Hi:Step):(  60:   1:  -1)
(PID.TID 0000.0001) // RANGE K (Lo:Hi:Step):(   1:   1:   1)
(PID.TID 0000.0001) // =======================================================
(PID.TID 0000.0001) K =   1
(PID.TID 0000.0001)                I=10      I=20      I=30      I=40      I=50      I=60
(PID.TID 0000.0001) |--J--|123456789|123456789|123456789|123456789|123456789|123456789|
(PID.TID 0000.0001)     60 ............................................................
(PID.TID 0000.0001)     59 -----------------------------------------------------------.
(PID.TID 0000.0001)     58 -----------------------------------------------------------.
(PID.TID 0000.0001)     57 -----------------------------------------------------------.
(PID.TID 0000.0001)     56 -----------------------------------------------------------.
(PID.TID 0000.0001)     55 -----------------------------------------------------------.
(PID.TID 0000.0001)     54 -----------------------------------------------------------.
(PID.TID 0000.0001)     53 -----------------------------------------------------------.
(PID.TID 0000.0001)     52 -----------------------------------------------------------.
(PID.TID 0000.0001)     51 -----------------------------------------------------------.
(PID.TID 0000.0001)     50 -----------------------------------------------------------.
(PID.TID 0000.0001)     49 -----------------------------------------------------------.
(PID.TID 0000.0001)     48 -----------------------------------------------------------.
(PID.TID 0000.0001)     47 -----------------------------------------------------------.
(PID.TID 0000.0001)     46 -----------------------------------------------------------.
(PID.TID 0000.0001)     45 -----------------------------------------------------------.
(PID.TID 0000.0001)     44 -----------------------------------------------------------.
(PID.TID 0000.0001)     43 -----------------------------------------------------------.
(PID.TID 0000.0001)     42 -----------------------------------------------------------.
(PID.TID 0000.0001)     41 -----------------------------------------------------------.
(PID.TID 0000.0001)     40 -----------------------------------------------------------.
(PID.TID 0000.0001)     39 -----------------------------------------------------------.
(PID.TID 0000.0001)     38 -----------------------------------------------------------.
(PID.TID 0000.0001)     37 -----------------------------------------------------------.
(PID.TID 0000.0001)     36 -----------------------------------------------------------.
(PID.TID 0000.0001)     35 -----------------------------------------------------------.
(PID.TID 0000.0001)     34 -----------------------------------------------------------.
(PID.TID 0000.0001)     33 -----------------------------------------------------------.
(PID.TID 0000.0001)     32 -----------------------------------------------------------.
(PID.TID 0000.0001)     31 -----------------------------------------------------------.
(PID.TID 0000.0001)     30 -----------------------------------------------------------.
(PID.TID 0000.0001)     29 -----------------------------------------------------------.
(PID.TID 0000.0001)     28 -----------------------------------------------------------.
(PID.TID 0000.0001)     27 -----------------------------------------------------------.
(PID.TID 0000.0001)     26 -----------------------------------------------------------.
(PID.TID 0000.0001)     25 -----------------------------------------------------------.
(PID.TID 0000.0001)     24 -----------------------------------------------------------.
(PID.TID 0000.0001)     23 -----------------------------------------------------------.
(PID.TID 0000.0001)     22 -----------------------------------------------------------.
(PID.TID 0000.0001)     21 -----------------------------------------------------------.
(PID.TID 0000.0001)     20 -----------------------------------------------------------.
(PID.TID 0000.0001)     19 -----------------------------------------------------------.
(PID.TID 0000.0001)     18 -----------------------------------------------------------.
(PID.TID 0000.0001)     17 -----------------------------------------------------------.
(PID.TID 0000.0001)     16 -----------------------------------------------------------.
(PID.TID 0000.0001)     15 -----------------------------------------------------------.
(PID.TID 0000.0001)     14 -----------------------------------------------------------.
(PID.TID 0000.0001)     13 -----------------------------------------------------------.
(PID.TID 0000.0001)     12 -----------------------------------------------------------.
(PID.TID 0000.0001)     11 -----------------------------------------------------------.
(PID.TID 0000.0001)     10 -----------------------------------------------------------.
(PID.TID 0000.0001)      9 -----------------------------------------------------------.
(PID.TID 0000.0001)      8 -----------------------------------------------------------.
(PID.TID 0000.0001)      7 -----------------------------------------------------------.
(PID.TID 0000.0001)      6 -----------------------------------------------------------.
(PID.TID 0000.0001)      5 -----------------------------------------------------------.
(PID.TID 0000.0001)      4 -----------------------------------------------------------.
(PID.TID 0000.0001)      3 -----------------------------------------------------------.
(PID.TID 0000.0001)      2 -----------------------------------------------------------.
(PID.TID 0000.0001)      1 -----------------------------------------------------------.
(PID.TID 0000.0001) // =======================================================
(PID.TID 0000.0001) // END OF FIELD                                          =
(PID.TID 0000.0001) // =======================================================
(PID.TID 0000.0001) 
(PID.TID 0000.0001) Start initial hydrostatic pressure computation
(PID.TID 0000.0001) Pressure is predetermined for buoyancyRelation OCEANIC
(PID.TID 0000.0001) 
(PID.TID 0000.0001)  MDSREADFIELD: opening global file: windx.sin_y
(PID.TID 0000.0001) // =======================================================
(PID.TID 0000.0001) // Model current state
(PID.TID 0000.0001) // =======================================================
(PID.TID 0000.0001) 
(PID.TID 0000.0001) // =======================================================
(PID.TID 0000.0001) // Begin MONITOR dynamic field statistics
(PID.TID 0000.0001) // =======================================================
(PID.TID 0000.0001) %MON time_tsnumber                =                     0
(PID.TID 0000.0001) %MON time_secondsf                =   0.0000000000000E+00
(PID.TID 0000.0001) %MON dynstat_eta_max              =   0.0000000000000E+00
(PID.TID 0000.0001) %MON dynstat_eta_min              =   0.0000000000000E+00
(PID.TID 0000.0001) %MON dynstat_eta_mean             =   0.0000000000000E+00
(PID.TID 0000.0001) %MON dynstat_eta_sd               =   0.0000000000000E+00
(PID.TID 0000.0001) %MON dynstat_eta_del2             =   0.0000000000000E+00
(PID.TID 0000.0001) %MON dynstat_uvel_max             =   0.0000000000000E+00
(PID.TID 0000.0001) %MON dynstat_uvel_min             =   0.0000000000000E+00
(PID.TID 0000.0001) %MON dynstat_uvel_mean            =   0.0000000000000E+00
(PID.TID 0000.0001) %MON dynstat_uvel_sd              =   0.0000000000000E+00
(PID.TID 0000.0001) %MON dynstat_uvel_del2            =   0.0000000000000E+00
(PID.TID 0000.0001) %MON dynstat_vvel_max             =   0.0000000000000E+00
(PID.TID 0000.0001) %MON dynstat_vvel_min             =   0.0000000000000E+00
(PID.TID 0000.0001) %MON dynstat_vvel_mean            =   0.0000000000000E+00
(PID.TID 0000.0001) %MON dynstat_vvel_sd              =   0.0000000000000E+00
(PID.TID 0000.0001) %MON dynstat_vvel_del2            =   0.0000000000000E+00
(PID.TID 0000.0001) %MON dynstat_wvel_max             =   0.0000000000000E+00
(PID.TID 0000.0001) %MON dynstat_wvel_min             =   0.0000000000000E+00
(PID.TID 0000.0001) %MON dynstat_wvel_mean            =   0.0000000000000E+00
(PID.TID 0000.0001) %MON dynstat_wvel_sd              =   0.0000000000000E+00
(PID.TID 0000.0001) %MON dynstat_wvel_del2            =   0.0000000000000E+00
(PID.TID 0000.0001) %MON dynstat_theta_max            =   2.0000000000000E+01
(PID.TID 0000.0001) %MON dynstat_theta_min            =   6.0000000000000E+00
(PID.TID 0000.0001) %MON dynstat_theta_mean           =   1.1000000000000E+01
(PID.TID 0000.0001) %MON dynstat_theta_sd             =   5.3851648071346E+00
(PID.TID 0000.0001) %MON dynstat_theta_del2           =   0.0000000000000E+00
(PID.TID 0000.0001) %MON dynstat_salt_max             =   1.0000000000000E+01
(PID.TID 0000.0001) %MON dynstat_salt_min             =   1.0000000000000E+01
(PID.TID 0000.0001) %MON dynstat_salt_mean            =   1.0000000000000E+01
(PID.TID 0000.0001) %MON dynstat_salt_sd              =   4.3698378249248E-13
(PID.TID 0000.0001) %MON dynstat_salt_del2            =   0.0000000000000E+00
(PID.TID 0000.0001) %MON advcfl_uvel_max              =   0.0000000000000E+00
(PID.TID 0000.0001) %MON advcfl_vvel_max              =   0.0000000000000E+00
(PID.TID 0000.0001) %MON advcfl_wvel_max              =   0.0000000000000E+00
(PID.TID 0000.0001) %MON advcfl_W_hf_max              =   0.0000000000000E+00
(PID.TID 0000.0001) %MON pe_b_mean                    =   0.0000000000000E+00
(PID.TID 0000.0001) %MON ke_max                       =   0.0000000000000E+00
(PID.TID 0000.0001) %MON ke_mean                      =   0.0000000000000E+00
(PID.TID 0000.0001) %MON ke_vol                       =   7.1631465222289E+16
(PID.TID 0000.0001) %MON vort_r_min                   =   0.0000000000000E+00
(PID.TID 0000.0001) %MON vort_r_max                   =   0.0000000000000E+00
(PID.TID 0000.0001) %MON vort_a_mean                  =   6.2047106074195E-05
(PID.TID 0000.0001) %MON vort_a_sd                    =   3.6503447241828E-05
(PID.TID 0000.0001) %MON vort_p_mean                  =   6.5060270548529E-05
(PID.TID 0000.0001) %MON vort_p_sd                    =   4.7084040258210E-05
(PID.TID 0000.0001) %MON surfExpan_theta_mean         =   0.0000000000000E+00
(PID.TID 0000.0001) %MON surfExpan_salt_mean          =   0.0000000000000E+00
(PID.TID 0000.0001) // =======================================================
(PID.TID 0000.0001) // End MONITOR dynamic field statistics
(PID.TID 0000.0001) // =======================================================
 cg2d: Sum(rhs),rhsMax =  -3.65679708735911E-15  2.90508452966523E-03
(PID.TID 0000.0001)                    cg2d_init_res =    7.68114574786861E+00
(PID.TID 0000.0001)                       cg2d_iters =    44
(PID.TID 0000.0001)                         cg2d_res =    5.55068823911019E-14
(PID.TID 0000.0001) // =======================================================
(PID.TID 0000.0001) // Begin MONITOR dynamic field statistics
(PID.TID 0000.0001) // =======================================================
(PID.TID 0000.0001) %MON time_tsnumber                =                     1
(PID.TID 0000.0001) %MON time_secondsf                =   1.2000000000000E+03
(PID.TID 0000.0001) %MON dynstat_eta_max              =   6.4340152618250E-04
(PID.TID 0000.0001) %MON dynstat_eta_min              =  -6.4340152618250E-04
(PID.TID 0000.0001) %MON dynstat_eta_mean             =   3.7049722551660E-22
(PID.TID 0000.0001) %MON dynstat_eta_sd               =   1.0383686870817E-04
(PID.TID 0000.0001) %MON dynstat_eta_del2             =   2.9673709284308E-06
(PID.TID 0000.0001) %MON dynstat_uvel_max             =   2.4004800217754E-04
(PID.TID 0000.0001) %MON dynstat_uvel_min             =  -3.4135812417949E-05
(PID.TID 0000.0001) %MON dynstat_uvel_mean            =   3.7140667241856E-05
(PID.TID 0000.0001) %MON dynstat_uvel_sd              =   7.6700943712709E-05
(PID.TID 0000.0001) %MON dynstat_uvel_del2            =   2.1213068432355E-07
(PID.TID 0000.0001) %MON dynstat_vvel_max             =   3.6754641984185E-06
(PID.TID 0000.0001) %MON dynstat_vvel_min             =  -3.6754641984185E-06
(PID.TID 0000.0001) %MON dynstat_vvel_mean            =  -5.8891436842814E-25
(PID.TID 0000.0001) %MON dynstat_vvel_sd              =   5.3137847448746E-07
(PID.TID 0000.0001) %MON dynstat_vvel_del2            =   1.6719175209588E-08
(PID.TID 0000.0001) %MON dynstat_wvel_max             =   5.5607348726650E-07
(PID.TID 0000.0001) %MON dynstat_wvel_min             =  -5.5607348726650E-07
(PID.TID 0000.0001) %MON dynstat_wvel_mean            =   2.3470285001268E-24
(PID.TID 0000.0001) %MON dynstat_wvel_sd              =   6.3625332283816E-08
(PID.TID 0000.0001) %MON dynstat_wvel_del2            =   5.4785327214208E-09
(PID.TID 0000.0001) %MON dynstat_theta_max            =   1.9999520000000E+01
(PID.TID 0000.0001) %MON dynstat_theta_min            =   6.0000960000000E+00
(PID.TID 0000.0001) %MON dynstat_theta_mean           =   1.1000000000001E+01
(PID.TID 0000.0001) %MON dynstat_theta_sd             =   5.3849241495836E+00
(PID.TID 0000.0001) %MON dynstat_theta_del2           =   0.0000000000000E+00
(PID.TID 0000.0001) %MON dynstat_salt_max             =   1.0000000000000E+01
(PID.TID 0000.0001) %MON dynstat_salt_min             =   1.0000000000000E+01
(PID.TID 0000.0001) %MON dynstat_salt_mean            =   1.0000000000000E+01
(PID.TID 0000.0001) %MON dynstat_salt_sd              =   4.3698378249248E-13
(PID.TID 0000.0001) %MON dynstat_salt_del2            =   0.0000000000000E+00
(PID.TID 0000.0001) %MON advcfl_uvel_max              =   3.0368950250902E-06
(PID.TID 0000.0001) %MON advcfl_vvel_max              =   3.9671319244109E-08
(PID.TID 0000.0001) %MON advcfl_wvel_max              =   2.5736061047300E-06
(PID.TID 0000.0001) %MON advcfl_W_hf_max              =   2.6691527388792E-06
(PID.TID 0000.0001) %MON pe_b_mean                    =   2.6443088730895E-11
(PID.TID 0000.0001) %MON ke_max                       =   2.8811887365105E-08
(PID.TID 0000.0001) %MON ke_mean                      =   3.5698699688931E-09
(PID.TID 0000.0001) %MON ke_vol                       =   7.1631465222289E+16
(PID.TID 0000.0001) %MON vort_r_min                   =  -1.1475416306231E-10
(PID.TID 0000.0001) %MON vort_r_max                   =   1.2483618592507E-10
(PID.TID 0000.0001) %MON vort_a_mean                  =   6.2047106074195E-05
(PID.TID 0000.0001) %MON vort_a_sd                    =   3.6503466372179E-05
(PID.TID 0000.0001) %MON vort_p_mean                  =   6.5060270548529E-05
(PID.TID 0000.0001) %MON vort_p_sd                    =   4.7084054794637E-05
(PID.TID 0000.0001) %MON surfExpan_theta_mean         =   1.8659305789400E-22
(PID.TID 0000.0001) %MON surfExpan_salt_mean          =   1.8433863364635E-23
(PID.TID 0000.0001) // =======================================================
(PID.TID 0000.0001) // End MONITOR dynamic field statistics
(PID.TID 0000.0001) // =======================================================
 cg2d: Sum(rhs),rhsMax =   2.34534613952064E-15  5.42417508648427E-03
(PID.TID 0000.0001)                    cg2d_init_res =    4.27509673538441E+00
(PID.TID 0000.0001)                       cg2d_iters =    47
(PID.TID 0000.0001)                         cg2d_res =    4.93099210653771E-14
(PID.TID 0000.0001) // =======================================================
(PID.TID 0000.0001) // Begin MONITOR dynamic field statistics
(PID.TID 0000.0001) // =======================================================
(PID.TID 0000.0001) %MON time_tsnumber                =                     2
(PID.TID 0000.0001) %MON time_secondsf                =   2.4000000000000E+03
(PID.TID 0000.0001) %MON dynstat_eta_max              =   1.4594173764983E-03
(PID.TID 0000.0001) %MON dynstat_eta_min              =  -1.4578264548813E-03
(PID.TID 0000.0001) %MON dynstat_eta_mean             =   1.4545243704341E-19
(PID.TID 0000.0001) %MON dynstat_eta_sd               =   2.6711134197935E-04
(PID.TID 0000.0001) %MON dynstat_eta_del2             =   4.5857388490758E-06
(PID.TID 0000.0001) %MON dynstat_uvel_max             =   4.8007740727216E-04
(PID.TID 0000.0001) %MON dynstat_uvel_min             =  -8.6798162191594E-05
(PID.TID 0000.0001) %MON dynstat_uvel_mean            =   7.1977565185575E-05
(PID.TID 0000.0001) %MON dynstat_uvel_sd              =   1.5350079182873E-04
(PID.TID 0000.0001) %MON dynstat_uvel_del2            =   3.9447987942290E-07
(PID.TID 0000.0001) %MON dynstat_vvel_max             =   1.2900034890530E-05
(PID.TID 0000.0001) %MON dynstat_vvel_min             =  -3.7137385353577E-05
(PID.TID 0000.0001) %MON dynstat_vvel_mean            =  -4.6813442314903E-06
(PID.TID 0000.0001) %MON dynstat_vvel_sd              =   1.0832930935760E-05
(PID.TID 0000.0001) %MON dynstat_vvel_del2            =   9.5122960665651E-08
(PID.TID 0000.0001) %MON dynstat_wvel_max             =   1.4018471518596E-06
(PID.TID 0000.0001) %MON dynstat_wvel_min             =  -1.4019460147263E-06
(PID.TID 0000.0001) %MON dynstat_wvel_mean            =   1.0768797165628E-23
(PID.TID 0000.0001) %MON dynstat_wvel_sd              =   1.4365235288447E-07
(PID.TID 0000.0001) %MON dynstat_wvel_del2            =   1.0966317989927E-08
(PID.TID 0000.0001) %MON dynstat_theta_max            =   1.9999050742044E+01
(PID.TID 0000.0001) %MON dynstat_theta_min            =   6.0001912808873E+00
(PID.TID 0000.0001) %MON dynstat_theta_mean           =   1.1000000000000E+01
(PID.TID 0000.0001) %MON dynstat_theta_sd             =   5.3846835279952E+00
(PID.TID 0000.0001) %MON dynstat_theta_del2           =   1.1197604107548E-07
(PID.TID 0000.0001) %MON dynstat_salt_max             =   1.0000000000000E+01
(PID.TID 0000.0001) %MON dynstat_salt_min             =   1.0000000000000E+01
(PID.TID 0000.0001) %MON dynstat_salt_mean            =   1.0000000000000E+01
(PID.TID 0000.0001) %MON dynstat_salt_sd              =   4.3698378249248E-13
(PID.TID 0000.0001) %MON dynstat_salt_del2            =   0.0000000000000E+00
(PID.TID 0000.0001) %MON advcfl_uvel_max              =   6.0735534784718E-06
(PID.TID 0000.0001) %MON advcfl_vvel_max              =   4.0084435345260E-07
(PID.TID 0000.0001) %MON advcfl_wvel_max              =   3.3646704353431E-06
(PID.TID 0000.0001) %MON advcfl_W_hf_max              =   6.7293408706863E-06
(PID.TID 0000.0001) %MON pe_b_mean                    =   1.7498212025686E-10
(PID.TID 0000.0001) %MON ke_max                       =   1.1578024552170E-07
(PID.TID 0000.0001) %MON ke_mean                      =   1.4196781706939E-08
(PID.TID 0000.0001) %MON ke_vol                       =   7.1631465222289E+16
(PID.TID 0000.0001) %MON vort_r_min                   =  -2.8904779173379E-10
(PID.TID 0000.0001) %MON vort_r_max                   =   4.0572163520405E-10
(PID.TID 0000.0001) %MON vort_a_mean                  =   6.2047106074197E-05
(PID.TID 0000.0001) %MON vort_a_sd                    =   3.6503484339526E-05
(PID.TID 0000.0001) %MON vort_p_mean                  =   6.5060270548531E-05
(PID.TID 0000.0001) %MON vort_p_sd                    =   4.7084065549574E-05
(PID.TID 0000.0001) %MON surfExpan_theta_mean         =   5.0694678308755E-14
(PID.TID 0000.0001) %MON surfExpan_salt_mean          =   1.7109924302962E-22
(PID.TID 0000.0001) // =======================================================
(PID.TID 0000.0001) // End MONITOR dynamic field statistics
(PID.TID 0000.0001) // =======================================================
 cg2d: Sum(rhs),rhsMax =  -2.84106072001578E-13  7.37960847464102E-03
(PID.TID 0000.0001)                    cg2d_init_res =    3.52780816037725E+00
(PID.TID 0000.0001)                       cg2d_iters =    46
(PID.TID 0000.0001)                         cg2d_res =    6.03485271913953E-14
(PID.TID 0000.0001) // =======================================================
(PID.TID 0000.0001) // Begin MONITOR dynamic field statistics
(PID.TID 0000.0001) // =======================================================
(PID.TID 0000.0001) %MON time_tsnumber                =                     3
(PID.TID 0000.0001) %MON time_secondsf                =   3.6000000000000E+03
(PID.TID 0000.0001) %MON dynstat_eta_max              =   2.2959611118080E-03
(PID.TID 0000.0001) %MON dynstat_eta_min              =  -2.2888298229905E-03
(PID.TID 0000.0001) %MON dynstat_eta_mean             =   3.5903105955939E-19
(PID.TID 0000.0001) %MON dynstat_eta_sd               =   4.7188723539621E-04
(PID.TID 0000.0001) %MON dynstat_eta_del2             =   5.1287508037567E-06
(PID.TID 0000.0001) %MON dynstat_uvel_max             =   7.1556858825243E-04
(PID.TID 0000.0001) %MON dynstat_uvel_min             =  -1.4456133111981E-04
(PID.TID 0000.0001) %MON dynstat_uvel_mean            =   1.0375697647276E-04
(PID.TID 0000.0001) %MON dynstat_uvel_sd              =   2.2895757519303E-04
(PID.TID 0000.0001) %MON dynstat_uvel_del2            =   5.0115990448987E-07
(PID.TID 0000.0001) %MON dynstat_vvel_max             =   2.8117532591510E-05
(PID.TID 0000.0001) %MON dynstat_vvel_min             =  -9.7186372435795E-05
(PID.TID 0000.0001) %MON dynstat_vvel_mean            =  -1.1933221145833E-05
(PID.TID 0000.0001) %MON dynstat_vvel_sd              =   2.8277868879041E-05
(PID.TID 0000.0001) %MON dynstat_vvel_del2            =   2.2848197111689E-07
(PID.TID 0000.0001) %MON dynstat_wvel_max             =   2.3212694392480E-06
(PID.TID 0000.0001) %MON dynstat_wvel_min             =  -2.3217648384069E-06
(PID.TID 0000.0001) %MON dynstat_wvel_mean            =   7.4713381079175E-24
(PID.TID 0000.0001) %MON dynstat_wvel_sd              =   2.2748180652601E-07
(PID.TID 0000.0001) %MON dynstat_wvel_del2            =   1.6229482193039E-08
(PID.TID 0000.0001) %MON dynstat_theta_max            =   1.9998593757822E+01
(PID.TID 0000.0001) %MON dynstat_theta_min            =   6.0002857415568E+00
(PID.TID 0000.0001) %MON dynstat_theta_mean           =   1.1000000000000E+01
(PID.TID 0000.0001) %MON dynstat_theta_sd             =   5.3844429315800E+00
(PID.TID 0000.0001) %MON dynstat_theta_del2           =   3.1369190893263E-07
(PID.TID 0000.0001) %MON dynstat_salt_max             =   1.0000000000000E+01
(PID.TID 0000.0001) %MON dynstat_salt_min             =   1.0000000000000E+01
(PID.TID 0000.0001) %MON dynstat_salt_mean            =   1.0000000000000E+01
(PID.TID 0000.0001) %MON dynstat_salt_sd              =   4.3698378249248E-13
(PID.TID 0000.0001) %MON dynstat_salt_del2            =   0.0000000000000E+00
(PID.TID 0000.0001) %MON advcfl_uvel_max              =   9.0381383271622E-06
(PID.TID 0000.0001) %MON advcfl_vvel_max              =   1.0489863045697E-06
(PID.TID 0000.0001) %MON advcfl_wvel_max              =   5.5722356121765E-06
(PID.TID 0000.0001) %MON advcfl_W_hf_max              =   1.1144471224353E-05
(PID.TID 0000.0001) %MON pe_b_mean                    =   5.4611672308554E-10
(PID.TID 0000.0001) %MON ke_max                       =   2.5974196501003E-07
(PID.TID 0000.0001) %MON ke_mean                      =   3.1522193878540E-08
(PID.TID 0000.0001) %MON ke_vol                       =   7.1631465222289E+16
(PID.TID 0000.0001) %MON vort_r_min                   =  -6.7279535849777E-10
(PID.TID 0000.0001) %MON vort_r_max                   =   7.9266940526755E-10
(PID.TID 0000.0001) %MON vort_a_mean                  =   6.2047106074197E-05
(PID.TID 0000.0001) %MON vort_a_sd                    =   3.6503500785310E-05
(PID.TID 0000.0001) %MON vort_p_mean                  =   6.5060270548531E-05
(PID.TID 0000.0001) %MON vort_p_sd                    =   4.7084072089402E-05
(PID.TID 0000.0001) %MON surfExpan_theta_mean         =   1.1902516207570E-13
(PID.TID 0000.0001) %MON surfExpan_salt_mean          =   3.0538887474392E-23
(PID.TID 0000.0001) // =======================================================
(PID.TID 0000.0001) // End MONITOR dynamic field statistics
(PID.TID 0000.0001) // =======================================================
 cg2d: Sum(rhs),rhsMax =  -1.42531819680158E-13  9.09442517389286E-03
(PID.TID 0000.0001)                    cg2d_init_res =    3.22675695612105E+00
(PID.TID 0000.0001)                       cg2d_iters =    45
(PID.TID 0000.0001)                         cg2d_res =    9.28785796291598E-14
(PID.TID 0000.0001) // =======================================================
(PID.TID 0000.0001) // Begin MONITOR dynamic field statistics
(PID.TID 0000.0001) // =======================================================
(PID.TID 0000.0001) %MON time_tsnumber                =                     4
(PID.TID 0000.0001) %MON time_secondsf                =   4.8000000000000E+03
(PID.TID 0000.0001) %MON dynstat_eta_max              =   3.1187246387579E-03
(PID.TID 0000.0001) %MON dynstat_eta_min              =  -3.1028899066039E-03
(PID.TID 0000.0001) %MON dynstat_eta_mean             =   2.4584993921264E-19
(PID.TID 0000.0001) %MON dynstat_eta_sd               =   7.0917022185868E-04
(PID.TID 0000.0001) %MON dynstat_eta_del2             =   5.3013192204259E-06
(PID.TID 0000.0001) %MON dynstat_uvel_max             =   9.4540635891739E-04
(PID.TID 0000.0001) %MON dynstat_uvel_min             =  -2.0247901423220E-04
(PID.TID 0000.0001) %MON dynstat_uvel_mean            =   1.3238617386641E-04
(PID.TID 0000.0001) %MON dynstat_uvel_sd              =   3.0267840394441E-04
(PID.TID 0000.0001) %MON dynstat_uvel_del2            =   5.6583454768091E-07
(PID.TID 0000.0001) %MON dynstat_vvel_max             =   5.2048020629191E-05
(PID.TID 0000.0001) %MON dynstat_vvel_min             =  -1.7895636227852E-04
(PID.TID 0000.0001) %MON dynstat_vvel_mean            =  -2.1394119047162E-05
(PID.TID 0000.0001) %MON dynstat_vvel_sd              =   5.2124382215871E-05
(PID.TID 0000.0001) %MON dynstat_vvel_del2            =   4.0998012222298E-07
(PID.TID 0000.0001) %MON dynstat_wvel_max             =   3.2352456155405E-06
(PID.TID 0000.0001) %MON dynstat_wvel_min             =  -3.2369269015330E-06
(PID.TID 0000.0001) %MON dynstat_wvel_mean            =   1.1852541808108E-23
(PID.TID 0000.0001) %MON dynstat_wvel_sd              =   3.0968342742926E-07
(PID.TID 0000.0001) %MON dynstat_wvel_del2            =   2.1277193016242E-08
(PID.TID 0000.0001) %MON dynstat_theta_max            =   1.9998148359764E+01
(PID.TID 0000.0001) %MON dynstat_theta_min            =   6.0003794302307E+00
(PID.TID 0000.0001) %MON dynstat_theta_mean           =   1.1000000000000E+01
(PID.TID 0000.0001) %MON dynstat_theta_sd             =   5.3842023603339E+00
(PID.TID 0000.0001) %MON dynstat_theta_del2           =   5.8744379159748E-07
(PID.TID 0000.0001) %MON dynstat_salt_max             =   1.0000000000000E+01
(PID.TID 0000.0001) %MON dynstat_salt_min             =   1.0000000000000E+01
(PID.TID 0000.0001) %MON dynstat_salt_mean            =   1.0000000000000E+01
(PID.TID 0000.0001) %MON dynstat_salt_sd              =   4.3698378249248E-13
(PID.TID 0000.0001) %MON dynstat_salt_del2            =   0.0000000000000E+00
(PID.TID 0000.0001) %MON advcfl_uvel_max              =   1.1912947808750E-05
(PID.TID 0000.0001) %MON advcfl_vvel_max              =   1.9315750597626E-06
(PID.TID 0000.0001) %MON advcfl_wvel_max              =   7.7686245636793E-06
(PID.TID 0000.0001) %MON advcfl_W_hf_max              =   1.5537249127359E-05
(PID.TID 0000.0001) %MON pe_b_mean                    =   1.2334171947581E-09
(PID.TID 0000.0001) %MON ke_max                       =   4.5957969166972E-07
(PID.TID 0000.0001) %MON ke_mean                      =   5.5208726627910E-08
(PID.TID 0000.0001) %MON ke_vol                       =   7.1631465222289E+16
(PID.TID 0000.0001) %MON vort_r_min                   =  -1.1894638219702E-09
(PID.TID 0000.0001) %MON vort_r_max                   =   1.2709636132599E-09
(PID.TID 0000.0001) %MON vort_a_mean                  =   6.2047106074197E-05
(PID.TID 0000.0001) %MON vort_a_sd                    =   3.6503515665499E-05
(PID.TID 0000.0001) %MON vort_p_mean                  =   6.5060270548531E-05
(PID.TID 0000.0001) %MON vort_p_sd                    =   4.7084074396610E-05
(PID.TID 0000.0001) %MON surfExpan_theta_mean         =   1.8427674150594E-13
(PID.TID 0000.0001) %MON surfExpan_salt_mean          =  -4.7091529966964E-22
(PID.TID 0000.0001) // =======================================================
(PID.TID 0000.0001) // End MONITOR dynamic field statistics
(PID.TID 0000.0001) // =======================================================
 cg2d: Sum(rhs),rhsMax =  -3.14692716330001E-13  1.07312010922178E-02
(PID.TID 0000.0001)                    cg2d_init_res =    3.01642050337813E+00
(PID.TID 0000.0001)                       cg2d_iters =    46
(PID.TID 0000.0001)                         cg2d_res =    4.92866016050925E-14
(PID.TID 0000.0001) // =======================================================
(PID.TID 0000.0001) // Begin MONITOR dynamic field statistics
(PID.TID 0000.0001) // =======================================================
(PID.TID 0000.0001) %MON time_tsnumber                =                     5
(PID.TID 0000.0001) %MON time_secondsf                =   6.0000000000000E+03
(PID.TID 0000.0001) %MON dynstat_eta_max              =   3.9198240209169E-03
(PID.TID 0000.0001) %MON dynstat_eta_min              =  -3.8910500661080E-03
(PID.TID 0000.0001) %MON dynstat_eta_mean             =   8.7986279936177E-19
(PID.TID 0000.0001) %MON dynstat_eta_sd               =   9.7304460010854E-04
(PID.TID 0000.0001) %MON dynstat_eta_del2             =   5.4175966357421E-06
(PID.TID 0000.0001) %MON dynstat_uvel_max             =   1.1682225842276E-03
(PID.TID 0000.0001) %MON dynstat_uvel_min             =  -2.5929595017530E-04
(PID.TID 0000.0001) %MON dynstat_uvel_mean            =   1.5773040623557E-04
(PID.TID 0000.0001) %MON dynstat_uvel_sd              =   3.7411228800633E-04
(PID.TID 0000.0001) %MON dynstat_uvel_del2            =   6.1865790154583E-07
(PID.TID 0000.0001) %MON dynstat_vvel_max             =   8.4993418691804E-05
(PID.TID 0000.0001) %MON dynstat_vvel_min             =  -2.8127363724846E-04
(PID.TID 0000.0001) %MON dynstat_vvel_mean            =  -3.2723075677979E-05
(PID.TID 0000.0001) %MON dynstat_vvel_sd              =   8.2093724660347E-05
(PID.TID 0000.0001) %MON dynstat_vvel_del2            =   6.3486410227503E-07
(PID.TID 0000.0001) %MON dynstat_wvel_max             =   4.1256251774087E-06
(PID.TID 0000.0001) %MON dynstat_wvel_min             =  -4.1278529178722E-06
(PID.TID 0000.0001) %MON dynstat_wvel_mean            =  -2.4551070198350E-23
(PID.TID 0000.0001) %MON dynstat_wvel_sd              =   3.8898033990816E-07
(PID.TID 0000.0001) %MON dynstat_wvel_del2            =   2.6162282732089E-08
(PID.TID 0000.0001) %MON dynstat_theta_max            =   1.9997713935247E+01
(PID.TID 0000.0001) %MON dynstat_theta_min            =   6.0004723890172E+00
(PID.TID 0000.0001) %MON dynstat_theta_mean           =   1.1000000000000E+01
(PID.TID 0000.0001) %MON dynstat_theta_sd             =   5.3839618142523E+00
(PID.TID 0000.0001) %MON dynstat_theta_del2           =   9.3070695003218E-07
(PID.TID 0000.0001) %MON dynstat_salt_max             =   1.0000000000000E+01
(PID.TID 0000.0001) %MON dynstat_salt_min             =   1.0000000000000E+01
(PID.TID 0000.0001) %MON dynstat_salt_mean            =   1.0000000000000E+01
(PID.TID 0000.0001) %MON dynstat_salt_sd              =   4.3698378249248E-13
(PID.TID 0000.0001) %MON dynstat_salt_del2            =   0.0000000000000E+00
(PID.TID 0000.0001) %MON advcfl_uvel_max              =   1.4679535289288E-05
(PID.TID 0000.0001) %MON advcfl_vvel_max              =   3.0359420350325E-06
(PID.TID 0000.0001) %MON advcfl_wvel_max              =   9.9068470028934E-06
(PID.TID 0000.0001) %MON advcfl_W_hf_max              =   1.9813694005787E-05
(PID.TID 0000.0001) %MON pe_b_mean                    =   2.3220657342955E-09
(PID.TID 0000.0001) %MON ke_max                       =   7.1356660388484E-07
(PID.TID 0000.0001) %MON ke_mean                      =   8.4868288488516E-08
(PID.TID 0000.0001) %MON ke_vol                       =   7.1631465222289E+16
(PID.TID 0000.0001) %MON vort_r_min                   =  -1.8310507175095E-09
(PID.TID 0000.0001) %MON vort_r_max                   =   1.8354661244222E-09
(PID.TID 0000.0001) %MON vort_a_mean                  =   6.2047106074197E-05
(PID.TID 0000.0001) %MON vort_a_sd                    =   3.6503528916035E-05
(PID.TID 0000.0001) %MON vort_p_mean                  =   6.5060270548531E-05
(PID.TID 0000.0001) %MON vort_p_sd                    =   4.7084072453186E-05
(PID.TID 0000.0001) %MON surfExpan_theta_mean         =   2.4800734469364E-13
(PID.TID 0000.0001) %MON surfExpan_salt_mean          =  -2.5004115313783E-22
(PID.TID 0000.0001) // =======================================================
(PID.TID 0000.0001) // End MONITOR dynamic field statistics
(PID.TID 0000.0001) // =======================================================
 cg2d: Sum(rhs),rhsMax =  -5.61925506126215E-13  1.23236938673455E-02
(PID.TID 0000.0001)                    cg2d_init_res =    2.84481852891689E+00
(PID.TID 0000.0001)                       cg2d_iters =    46
(PID.TID 0000.0001)                         cg2d_res =    4.90806393068024E-14
(PID.TID 0000.0001) // =======================================================
(PID.TID 0000.0001) // Begin MONITOR dynamic field statistics
(PID.TID 0000.0001) // =======================================================
(PID.TID 0000.0001) %MON time_tsnumber                =                     6
(PID.TID 0000.0001) %MON time_secondsf                =   7.2000000000000E+03
(PID.TID 0000.0001) %MON dynstat_eta_max              =   4.6961203013531E-03
(PID.TID 0000.0001) %MON dynstat_eta_min              =  -4.6484022143466E-03
(PID.TID 0000.0001) %MON dynstat_eta_mean             =   1.0921083222500E-18
(PID.TID 0000.0001) %MON dynstat_eta_sd               =   1.2591411645303E-03
(PID.TID 0000.0001) %MON dynstat_eta_del2             =   5.5780328813804E-06
(PID.TID 0000.0001) %MON dynstat_uvel_max             =   1.3830779310556E-03
(PID.TID 0000.0001) %MON dynstat_uvel_min             =  -3.1448279188647E-04
(PID.TID 0000.0001) %MON dynstat_uvel_mean            =   1.7969677988806E-04
(PID.TID 0000.0001) %MON dynstat_uvel_sd              =   4.4274218744039E-04
(PID.TID 0000.0001) %MON dynstat_uvel_del2            =   6.7263814456975E-07
(PID.TID 0000.0001) %MON dynstat_vvel_max             =   1.2554636745261E-04
(PID.TID 0000.0001) %MON dynstat_vvel_min             =  -4.0266096542868E-04
(PID.TID 0000.0001) %MON dynstat_vvel_mean            =  -4.5555483065703E-05
(PID.TID 0000.0001) %MON dynstat_vvel_sd              =   1.1783493458084E-04
(PID.TID 0000.0001) %MON dynstat_vvel_del2            =   8.9982551640089E-07
(PID.TID 0000.0001) %MON dynstat_wvel_max             =   4.9810801875267E-06
(PID.TID 0000.0001) %MON dynstat_wvel_min             =  -4.9840523387747E-06
(PID.TID 0000.0001) %MON dynstat_wvel_mean            =   3.8275861824069E-23
(PID.TID 0000.0001) %MON dynstat_wvel_sd              =   4.6496376419897E-07
(PID.TID 0000.0001) %MON dynstat_wvel_del2            =   3.0900853407861E-08
(PID.TID 0000.0001) %MON dynstat_theta_max            =   1.9997290003994E+01
(PID.TID 0000.0001) %MON dynstat_theta_min            =   6.0005646548417E+00
(PID.TID 0000.0001) %MON dynstat_theta_mean           =   1.1000000000000E+01
(PID.TID 0000.0001) %MON dynstat_theta_sd             =   5.3837212933304E+00
(PID.TID 0000.0001) %MON dynstat_theta_del2           =   1.3435520774849E-06
(PID.TID 0000.0001) %MON dynstat_salt_max             =   1.0000000000000E+01
(PID.TID 0000.0001) %MON dynstat_salt_min             =   1.0000000000000E+01
(PID.TID 0000.0001) %MON dynstat_salt_mean            =   1.0000000000000E+01
(PID.TID 0000.0001) %MON dynstat_salt_sd              =   4.3698378249248E-13
(PID.TID 0000.0001) %MON dynstat_salt_del2            =   0.0000000000000E+00
(PID.TID 0000.0001) %MON advcfl_uvel_max              =   1.7315325947142E-05
(PID.TID 0000.0001) %MON advcfl_vvel_max              =   4.3461426487396E-06
(PID.TID 0000.0001) %MON advcfl_wvel_max              =   1.1961725613059E-05
(PID.TID 0000.0001) %MON advcfl_W_hf_max              =   2.3923451226119E-05
(PID.TID 0000.0001) %MON pe_b_mean                    =   3.8882829481065E-09
(PID.TID 0000.0001) %MON ke_max                       =   1.0194313181840E-06
(PID.TID 0000.0001) %MON ke_mean                      =   1.2007926469936E-07
(PID.TID 0000.0001) %MON ke_vol                       =   7.1631465222289E+16
(PID.TID 0000.0001) %MON vort_r_min                   =  -2.5898989677046E-09
(PID.TID 0000.0001) %MON vort_r_max                   =   2.4796346634108E-09
(PID.TID 0000.0001) %MON vort_a_mean                  =   6.2047106074197E-05
(PID.TID 0000.0001) %MON vort_a_sd                    =   3.6503540492144E-05
(PID.TID 0000.0001) %MON vort_p_mean                  =   6.5060270548531E-05
(PID.TID 0000.0001) %MON vort_p_sd                    =   4.7084066269091E-05
(PID.TID 0000.0001) %MON surfExpan_theta_mean         =   3.1154536421879E-13
(PID.TID 0000.0001) %MON surfExpan_salt_mean          =  -1.4995775562269E-22
(PID.TID 0000.0001) // =======================================================
(PID.TID 0000.0001) // End MONITOR dynamic field statistics
(PID.TID 0000.0001) // =======================================================
 cg2d: Sum(rhs),rhsMax =  -5.89334137046649E-13  1.38730524470929E-02
(PID.TID 0000.0001)                    cg2d_init_res =    2.69929238079226E+00
(PID.TID 0000.0001)                       cg2d_iters =    45
(PID.TID 0000.0001)                         cg2d_res =    9.90715318409611E-14
(PID.TID 0000.0001) // =======================================================
(PID.TID 0000.0001) // Begin MONITOR dynamic field statistics
(PID.TID 0000.0001) // =======================================================
(PID.TID 0000.0001) %MON time_tsnumber                =                     7
(PID.TID 0000.0001) %MON time_secondsf                =   8.4000000000000E+03
(PID.TID 0000.0001) %MON dynstat_eta_max              =   5.4447343481379E-03
(PID.TID 0000.0001) %MON dynstat_eta_min              =  -5.3704704204297E-03
(PID.TID 0000.0001) %MON dynstat_eta_mean             =   2.7514961789640E-18
(PID.TID 0000.0001) %MON dynstat_eta_sd               =   1.5640309359086E-03
(PID.TID 0000.0001) %MON dynstat_eta_del2             =   5.7967187184818E-06
(PID.TID 0000.0001) %MON dynstat_uvel_max             =   1.5880062730693E-03
(PID.TID 0000.0001) %MON dynstat_uvel_min             =  -3.6783964206529E-04
(PID.TID 0000.0001) %MON dynstat_uvel_mean            =   1.9823851081592E-04
(PID.TID 0000.0001) %MON dynstat_uvel_sd              =   5.0809895553554E-04
(PID.TID 0000.0001) %MON dynstat_uvel_del2            =   7.3169723046164E-07
(PID.TID 0000.0001) %MON dynstat_vvel_max             =   1.7337571166599E-04
(PID.TID 0000.0001) %MON dynstat_vvel_min             =  -5.4139536130310E-04
(PID.TID 0000.0001) %MON dynstat_vvel_mean            =  -5.9514800539287E-05
(PID.TID 0000.0001) %MON dynstat_vvel_sd              =   1.5894116373284E-04
(PID.TID 0000.0001) %MON dynstat_vvel_del2            =   1.2020112152033E-06
(PID.TID 0000.0001) %MON dynstat_wvel_max             =   5.7974306610145E-06
(PID.TID 0000.0001) %MON dynstat_wvel_min             =  -5.8048557724074E-06
(PID.TID 0000.0001) %MON dynstat_wvel_mean            =  -4.7112170335799E-24
(PID.TID 0000.0001) %MON dynstat_wvel_sd              =   5.3727389092012E-07
(PID.TID 0000.0001) %MON dynstat_wvel_del2            =   3.5440792038501E-08
(PID.TID 0000.0001) %MON dynstat_theta_max            =   1.9996876194233E+01
(PID.TID 0000.0001) %MON dynstat_theta_min            =   6.0006562549741E+00
(PID.TID 0000.0001) %MON dynstat_theta_mean           =   1.1000000000000E+01
(PID.TID 0000.0001) %MON dynstat_theta_sd             =   5.3834807975635E+00
(PID.TID 0000.0001) %MON dynstat_theta_del2           =   1.8242561243582E-06
(PID.TID 0000.0001) %MON dynstat_salt_max             =   1.0000000000000E+01
(PID.TID 0000.0001) %MON dynstat_salt_min             =   1.0000000000000E+01
(PID.TID 0000.0001) %MON dynstat_salt_mean            =   1.0000000000000E+01
(PID.TID 0000.0001) %MON dynstat_salt_sd              =   4.3698378249248E-13
(PID.TID 0000.0001) %MON dynstat_salt_del2            =   0.0000000000000E+00
(PID.TID 0000.0001) %MON advcfl_uvel_max              =   1.9795431503470E-05
(PID.TID 0000.0001) %MON advcfl_vvel_max              =   5.8435797646395E-06
(PID.TID 0000.0001) %MON advcfl_wvel_max              =   1.3931653853778E-05
(PID.TID 0000.0001) %MON advcfl_W_hf_max              =   2.7863307707555E-05
(PID.TID 0000.0001) %MON pe_b_mean                    =   5.9992877646955E-09
(PID.TID 0000.0001) %MON ke_max                       =   1.3742632122725E-06
(PID.TID 0000.0001) %MON ke_mean                      =   1.6039215417782E-07
(PID.TID 0000.0001) %MON ke_vol                       =   7.1631465222289E+16
(PID.TID 0000.0001) %MON vort_r_min                   =  -3.4526838336845E-09
(PID.TID 0000.0001) %MON vort_r_max                   =   3.1975650384202E-09
(PID.TID 0000.0001) %MON vort_a_mean                  =   6.2047106074197E-05
(PID.TID 0000.0001) %MON vort_a_sd                    =   3.6503550370260E-05
(PID.TID 0000.0001) %MON vort_p_mean                  =   6.5060270548531E-05
(PID.TID 0000.0001) %MON vort_p_sd                    =   4.7084055883708E-05
(PID.TID 0000.0001) %MON surfExpan_theta_mean         =   3.7465755150037E-13
(PID.TID 0000.0001) %MON surfExpan_salt_mean          =  -3.9578327838109E-22
(PID.TID 0000.0001) // =======================================================
(PID.TID 0000.0001) // End MONITOR dynamic field statistics
(PID.TID 0000.0001) // =======================================================
 cg2d: Sum(rhs),rhsMax =  -9.75719505191819E-13  1.53740865803100E-02
(PID.TID 0000.0001)                    cg2d_init_res =    2.57424709504376E+00
(PID.TID 0000.0001)                       cg2d_iters =    45
(PID.TID 0000.0001)                         cg2d_res =    9.39062456631282E-14
(PID.TID 0000.0001) // =======================================================
(PID.TID 0000.0001) // Begin MONITOR dynamic field statistics
(PID.TID 0000.0001) // =======================================================
(PID.TID 0000.0001) %MON time_tsnumber                =                     8
(PID.TID 0000.0001) %MON time_secondsf                =   9.6000000000000E+03
(PID.TID 0000.0001) %MON dynstat_eta_max              =   6.1596530063607E-03
(PID.TID 0000.0001) %MON dynstat_eta_min              =  -6.0532523246652E-03
(PID.TID 0000.0001) %MON dynstat_eta_mean             =   4.0224341762642E-18
(PID.TID 0000.0001) %MON dynstat_eta_sd               =   1.8848927648622E-03
(PID.TID 0000.0001) %MON dynstat_eta_del2             =   6.0614284828394E-06
(PID.TID 0000.0001) %MON dynstat_uvel_max             =   1.7823143066318E-03
(PID.TID 0000.0001) %MON dynstat_uvel_min             =  -4.1932440573214E-04
(PID.TID 0000.0001) %MON dynstat_uvel_mean            =   2.1335407137090E-04
(PID.TID 0000.0001) %MON dynstat_uvel_sd              =   5.6976742151776E-04
(PID.TID 0000.0001) %MON dynstat_uvel_del2            =   7.9892105463349E-07
(PID.TID 0000.0001) %MON dynstat_vvel_max             =   2.2776945682590E-04
(PID.TID 0000.0001) %MON dynstat_vvel_min             =  -6.9555762930789E-04
(PID.TID 0000.0001) %MON dynstat_vvel_mean            =  -7.4219824042265E-05
(PID.TID 0000.0001) %MON dynstat_vvel_sd              =   2.0495798927866E-04
(PID.TID 0000.0001) %MON dynstat_vvel_del2            =   1.5389373530852E-06
(PID.TID 0000.0001) %MON dynstat_wvel_max             =   6.5707127698885E-06
(PID.TID 0000.0001) %MON dynstat_wvel_min             =  -6.5797295781189E-06
(PID.TID 0000.0001) %MON dynstat_wvel_mean            =   2.3771595438325E-23
(PID.TID 0000.0001) %MON dynstat_wvel_sd              =   6.0553303758470E-07
(PID.TID 0000.0001) %MON dynstat_wvel_del2            =   3.9752998098123E-08
(PID.TID 0000.0001) %MON dynstat_theta_max            =   1.9996471874678E+01
(PID.TID 0000.0001) %MON dynstat_theta_min            =   6.0007472322334E+00
(PID.TID 0000.0001) %MON dynstat_theta_mean           =   1.0999999999999E+01
(PID.TID 0000.0001) %MON dynstat_theta_sd             =   5.3832403269467E+00
(PID.TID 0000.0001) %MON dynstat_theta_del2           =   2.3700897129612E-06
(PID.TID 0000.0001) %MON dynstat_salt_max             =   1.0000000000000E+01
(PID.TID 0000.0001) %MON dynstat_salt_min             =   1.0000000000000E+01
(PID.TID 0000.0001) %MON dynstat_salt_mean            =   1.0000000000000E+01
(PID.TID 0000.0001) %MON dynstat_salt_sd              =   4.3698378249248E-13
(PID.TID 0000.0001) %MON dynstat_salt_del2            =   0.0000000000000E+00
(PID.TID 0000.0001) %MON advcfl_uvel_max              =   2.2121897871409E-05
(PID.TID 0000.0001) %MON advcfl_vvel_max              =   7.5075384428510E-06
(PID.TID 0000.0001) %MON advcfl_wvel_max              =   1.5791350987485E-05
(PID.TID 0000.0001) %MON advcfl_W_hf_max              =   3.1582701974971E-05
(PID.TID 0000.0001) %MON pe_b_mean                    =   8.7132928526605E-09
(PID.TID 0000.0001) %MON ke_max                       =   1.7743327567445E-06
(PID.TID 0000.0001) %MON ke_mean                      =   2.0533396431300E-07
(PID.TID 0000.0001) %MON ke_vol                       =   7.1631465222289E+16
(PID.TID 0000.0001) %MON vort_r_min                   =  -4.4066745304110E-09
(PID.TID 0000.0001) %MON vort_r_max                   =   3.9799647027075E-09
(PID.TID 0000.0001) %MON vort_a_mean                  =   6.2047106074197E-05
(PID.TID 0000.0001) %MON vort_a_sd                    =   3.6503558547723E-05
(PID.TID 0000.0001) %MON vort_p_mean                  =   6.5060270548531E-05
(PID.TID 0000.0001) %MON vort_p_sd                    =   4.7084041364552E-05
(PID.TID 0000.0001) %MON surfExpan_theta_mean         =   4.3778632507330E-13
(PID.TID 0000.0001) %MON surfExpan_salt_mean          =   5.4054990286118E-22
(PID.TID 0000.0001) // =======================================================
(PID.TID 0000.0001) // End MONITOR dynamic field statistics
(PID.TID 0000.0001) // =======================================================
 cg2d: Sum(rhs),rhsMax =  -1.32238664463102E-12  1.68146434158118E-02
(PID.TID 0000.0001)                    cg2d_init_res =    2.46661306585636E+00
(PID.TID 0000.0001)                       cg2d_iters =    45
(PID.TID 0000.0001)                         cg2d_res =    8.71225010186404E-14
(PID.TID 0000.0001) // =======================================================
(PID.TID 0000.0001) // Begin MONITOR dynamic field statistics
(PID.TID 0000.0001) // =======================================================
(PID.TID 0000.0001) %MON time_tsnumber                =                     9
(PID.TID 0000.0001) %MON time_secondsf                =   1.0800000000000E+04
(PID.TID 0000.0001) %MON dynstat_eta_max              =   6.8368476887278E-03
(PID.TID 0000.0001) %MON dynstat_eta_min              =  -6.6933595849156E-03
(PID.TID 0000.0001) %MON dynstat_eta_mean             =   4.7513906808910E-18
(PID.TID 0000.0001) %MON dynstat_eta_sd               =   2.2192836685733E-03
(PID.TID 0000.0001) %MON dynstat_eta_del2             =   6.3804784094413E-06
(PID.TID 0000.0001) %MON dynstat_uvel_max             =   1.9655108705979E-03
(PID.TID 0000.0001) %MON dynstat_uvel_min             =  -4.6846899641700E-04
(PID.TID 0000.0001) %MON dynstat_uvel_mean            =   2.2508540021519E-04
(PID.TID 0000.0001) %MON dynstat_uvel_sd              =   6.2739233063557E-04
(PID.TID 0000.0001) %MON dynstat_uvel_del2            =   8.7531997575097E-07
(PID.TID 0000.0001) %MON dynstat_vvel_max             =   2.8834605501255E-04
(PID.TID 0000.0001) %MON dynstat_vvel_min             =  -8.6363060766957E-04
(PID.TID 0000.0001) %MON dynstat_vvel_mean            =  -8.9291457977802E-05
(PID.TID 0000.0001) %MON dynstat_vvel_sd              =   2.5539155863439E-04
(PID.TID 0000.0001) %MON dynstat_vvel_del2            =   1.9086196562682E-06
(PID.TID 0000.0001) %MON dynstat_wvel_max             =   7.2940485530204E-06
(PID.TID 0000.0001) %MON dynstat_wvel_min             =  -7.3124658590619E-06
(PID.TID 0000.0001) %MON dynstat_wvel_mean            =   3.1131418723342E-23
(PID.TID 0000.0001) %MON dynstat_wvel_sd              =   6.6937889765807E-07
(PID.TID 0000.0001) %MON dynstat_wvel_del2            =   4.3815882721106E-08
(PID.TID 0000.0001) %MON dynstat_theta_max            =   1.9996076464592E+01
(PID.TID 0000.0001) %MON dynstat_theta_min            =   6.0008376338848E+00
(PID.TID 0000.0001) %MON dynstat_theta_mean           =   1.0999999999999E+01
(PID.TID 0000.0001) %MON dynstat_theta_sd             =   5.3829998814754E+00
(PID.TID 0000.0001) %MON dynstat_theta_del2           =   2.9778221637660E-06
(PID.TID 0000.0001) %MON dynstat_salt_max             =   1.0000000000000E+01
(PID.TID 0000.0001) %MON dynstat_salt_min             =   1.0000000000000E+01
(PID.TID 0000.0001) %MON dynstat_salt_mean            =   1.0000000000000E+01
(PID.TID 0000.0001) %MON dynstat_salt_sd              =   4.3698378249248E-13
(PID.TID 0000.0001) %MON dynstat_salt_del2            =   0.0000000000000E+00
(PID.TID 0000.0001) %MON advcfl_uvel_max              =   2.4263332258376E-05
(PID.TID 0000.0001) %MON advcfl_vvel_max              =   9.3216431166942E-06
(PID.TID 0000.0001) %MON advcfl_wvel_max              =   1.7549918061749E-05
(PID.TID 0000.0001) %MON advcfl_W_hf_max              =   3.5099836123497E-05
(PID.TID 0000.0001) %MON pe_b_mean                    =   1.2079102053915E-08
(PID.TID 0000.0001) %MON ke_max                       =   2.2160326435122E-06
(PID.TID 0000.0001) %MON ke_mean                      =   2.5441340016543E-07
(PID.TID 0000.0001) %MON ke_vol                       =   7.1631465222289E+16
(PID.TID 0000.0001) %MON vort_r_min                   =  -5.4429600949280E-09
(PID.TID 0000.0001) %MON vort_r_max                   =   4.8170051404424E-09
(PID.TID 0000.0001) %MON vort_a_mean                  =   6.2047106074197E-05
(PID.TID 0000.0001) %MON vort_a_sd                    =   3.6503565042042E-05
(PID.TID 0000.0001) %MON vort_p_mean                  =   6.5060270548531E-05
(PID.TID 0000.0001) %MON vort_p_sd                    =   4.7084022805167E-05
(PID.TID 0000.0001) %MON surfExpan_theta_mean         =   5.0309680846349E-13
(PID.TID 0000.0001) %MON surfExpan_salt_mean          =  -2.8360870054960E-22
(PID.TID 0000.0001) // =======================================================
(PID.TID 0000.0001) // End MONITOR dynamic field statistics
(PID.TID 0000.0001) // =======================================================
 cg2d: Sum(rhs),rhsMax =  -1.77011183488673E-12  1.81872966173824E-02
(PID.TID 0000.0001)                    cg2d_init_res =    2.37280723353378E+00
(PID.TID 0000.0001)                       cg2d_iters =    45
(PID.TID 0000.0001)                         cg2d_res =    7.90726348333706E-14
(PID.TID 0000.0001) // =======================================================
(PID.TID 0000.0001) // Begin MONITOR dynamic field statistics
(PID.TID 0000.0001) // =======================================================
(PID.TID 0000.0001) %MON time_tsnumber                =                    10
(PID.TID 0000.0001) %MON time_secondsf                =   1.2000000000000E+04
(PID.TID 0000.0001) %MON dynstat_eta_max              =   7.4786309182000E-03
(PID.TID 0000.0001) %MON dynstat_eta_min              =  -7.2880951319927E-03
(PID.TID 0000.0001) %MON dynstat_eta_mean             =   5.8013025674634E-18
(PID.TID 0000.0001) %MON dynstat_eta_sd               =   2.5649527651292E-03
(PID.TID 0000.0001) %MON dynstat_eta_del2             =   6.7479517962764E-06
(PID.TID 0000.0001) %MON dynstat_uvel_max             =   2.1355811990273E-03
(PID.TID 0000.0001) %MON dynstat_uvel_min             =  -5.1534374557262E-04
(PID.TID 0000.0001) %MON dynstat_uvel_mean            =   2.3351525251818E-04
(PID.TID 0000.0001) %MON dynstat_uvel_sd              =   6.8068375427016E-04
(PID.TID 0000.0001) %MON dynstat_uvel_del2            =   9.6138467733642E-07
(PID.TID 0000.0001) %MON dynstat_vvel_max             =   3.5416817239189E-04
(PID.TID 0000.0001) %MON dynstat_vvel_min             =  -1.0428844339936E-03
(PID.TID 0000.0001) %MON dynstat_vvel_mean            =  -1.0435914265422E-04
(PID.TID 0000.0001) %MON dynstat_vvel_sd              =   3.0971685986657E-04
(PID.TID 0000.0001) %MON dynstat_vvel_del2            =   2.3082974600058E-06
(PID.TID 0000.0001) %MON dynstat_wvel_max             =   7.9692413852729E-06
(PID.TID 0000.0001) %MON dynstat_wvel_min             =  -7.9932070868035E-06
(PID.TID 0000.0001) %MON dynstat_wvel_mean            =   2.9167482780784E-23
(PID.TID 0000.0001) %MON dynstat_wvel_sd              =   7.2848686756892E-07
(PID.TID 0000.0001) %MON dynstat_wvel_del2            =   4.7608879562837E-08
(PID.TID 0000.0001) %MON dynstat_theta_max            =   1.9995689594128E+01
(PID.TID 0000.0001) %MON dynstat_theta_min            =   6.0009274984551E+00
(PID.TID 0000.0001) %MON dynstat_theta_mean           =   1.0999999999999E+01
(PID.TID 0000.0001) %MON dynstat_theta_sd             =   5.3827594611448E+00
(PID.TID 0000.0001) %MON dynstat_theta_del2           =   3.6439383448906E-06
(PID.TID 0000.0001) %MON dynstat_salt_max             =   1.0000000000000E+01
(PID.TID 0000.0001) %MON dynstat_salt_min             =   1.0000000000000E+01
(PID.TID 0000.0001) %MON dynstat_salt_mean            =   1.0000000000000E+01
(PID.TID 0000.0001) %MON dynstat_salt_sd              =   4.3698378249248E-13
(PID.TID 0000.0001) %MON dynstat_salt_del2            =   0.0000000000000E+00
(PID.TID 0000.0001) %MON advcfl_uvel_max              =   2.6221789674150E-05
(PID.TID 0000.0001) %MON advcfl_vvel_max              =   1.1256428870529E-05
(PID.TID 0000.0001) %MON advcfl_wvel_max              =   1.9183697008328E-05
(PID.TID 0000.0001) %MON advcfl_W_hf_max              =   3.8367394016657E-05
(PID.TID 0000.0001) %MON pe_b_mean                    =   1.6134955040712E-08
(PID.TID 0000.0001) %MON ke_max                       =   2.6940017948278E-06
(PID.TID 0000.0001) %MON ke_mean                      =   3.0712701246622E-07
(PID.TID 0000.0001) %MON ke_vol                       =   7.1631465222289E+16
(PID.TID 0000.0001) %MON vort_r_min                   =  -6.5404708645725E-09
(PID.TID 0000.0001) %MON vort_r_max                   =   5.7041564392585E-09
(PID.TID 0000.0001) %MON vort_a_mean                  =   6.2047106074197E-05
(PID.TID 0000.0001) %MON vort_a_sd                    =   3.6503569889780E-05
(PID.TID 0000.0001) %MON vort_p_mean                  =   6.5060270548531E-05
(PID.TID 0000.0001) %MON vort_p_sd                    =   4.7084000322568E-05
(PID.TID 0000.0001) %MON surfExpan_theta_mean         =   5.7520244060973E-13
(PID.TID 0000.0001) %MON surfExpan_salt_mean          =  -1.2844658623500E-21
(PID.TID 0000.0001) // =======================================================
(PID.TID 0000.0001) // End MONITOR dynamic field statistics
(PID.TID 0000.0001) // =======================================================
(PID.TID 0000.0001) %CHECKPOINT        10 ckptA
(PID.TID 0000.0001)   Seconds in section "ALL                    [THE_MODEL_MAIN]":
(PID.TID 0000.0001)           User time:  0.699999988
(PID.TID 0000.0001)         System time:  0.0900000036
(PID.TID 0000.0001)     Wall clock time:  0.807978988
(PID.TID 0000.0001)          No. starts: 1
(PID.TID 0000.0001)           No. stops: 1
(PID.TID 0000.0001)   Seconds in section "INITIALISE_FIXED       [THE_MODEL_MAIN]":
(PID.TID 0000.0001)           User time:  0.0900000036
(PID.TID 0000.0001)         System time:  0.0199999996
(PID.TID 0000.0001)     Wall clock time:  0.125077009
(PID.TID 0000.0001)          No. starts: 1
(PID.TID 0000.0001)           No. stops: 1
(PID.TID 0000.0001)   Seconds in section "THE_MAIN_LOOP          [THE_MODEL_MAIN]":
(PID.TID 0000.0001)           User time:  0.580000013
(PID.TID 0000.0001)         System time:  0.0399999991
(PID.TID 0000.0001)     Wall clock time:  0.623261929
(PID.TID 0000.0001)          No. starts: 1
(PID.TID 0000.0001)           No. stops: 1
(PID.TID 0000.0001)   Seconds in section "INITIALISE_VARIA    [THE_MAIN_LOOP]":
(PID.TID 0000.0001)           User time:  0.00999999791
(PID.TID 0000.0001)         System time:  0.
(PID.TID 0000.0001)     Wall clock time:  0.0131720304
(PID.TID 0000.0001)          No. starts: 1
(PID.TID 0000.0001)           No. stops: 1
(PID.TID 0000.0001)   Seconds in section "WRITE_STATE         [THE_MAIN_LOOP]":
(PID.TID 0000.0001)           User time:  0.00999999791
(PID.TID 0000.0001)         System time:  0.00999999978
(PID.TID 0000.0001)     Wall clock time:  0.0221320391
(PID.TID 0000.0001)          No. starts: 1
(PID.TID 0000.0001)           No. stops: 1
(PID.TID 0000.0001)   Seconds in section "MONITOR             [THE_MAIN_LOOP]":
(PID.TID 0000.0001)           User time:  0.00999999791
(PID.TID 0000.0001)         System time:  0.00999999978
(PID.TID 0000.0001)     Wall clock time:  0.0138719082
(PID.TID 0000.0001)          No. starts: 1
(PID.TID 0000.0001)           No. stops: 1
(PID.TID 0000.0001)   Seconds in section "MAIN LOOP           [THE_MAIN_LOOP]":
(PID.TID 0000.0001)           User time:  0.550000019
(PID.TID 0000.0001)         System time:  0.0199999996
(PID.TID 0000.0001)     Wall clock time:  0.57397902
(PID.TID 0000.0001)          No. starts: 1
(PID.TID 0000.0001)           No. stops: 1
(PID.TID 0000.0001)   Seconds in section "FORWARD_STEP        [THE_MAIN_LOOP]":
(PID.TID 0000.0001)           User time:  0.550000019
(PID.TID 0000.0001)         System time:  0.0199999996
(PID.TID 0000.0001)     Wall clock time:  0.573761106
(PID.TID 0000.0001)          No. starts: 10
(PID.TID 0000.0001)           No. stops: 10
(PID.TID 0000.0001)   Seconds in section "EXTERNAL_FIELDS_LOAD[FORWARD_STEP]":
(PID.TID 0000.0001)           User time:  0.
(PID.TID 0000.0001)         System time:  0.
(PID.TID 0000.0001)     Wall clock time:  0.000202298164
(PID.TID 0000.0001)          No. starts: 10
(PID.TID 0000.0001)           No. stops: 10
(PID.TID 0000.0001)   Seconds in section "THERMODYNAMICS      [FORWARD_STEP]":
(PID.TID 0000.0001)           User time:  0.0799999833
(PID.TID 0000.0001)         System time:  0.
(PID.TID 0000.0001)     Wall clock time:  0.0833910704
(PID.TID 0000.0001)          No. starts: 10
(PID.TID 0000.0001)           No. stops: 10
(PID.TID 0000.0001)   Seconds in section "BLOCKING_EXCHANGES  [FORWARD_STEP]":
(PID.TID 0000.0001)           User time:  0.0200000107
(PID.TID 0000.0001)         System time:  0.
(PID.TID 0000.0001)     Wall clock time:  0.00550186634
(PID.TID 0000.0001)          No. starts: 20
(PID.TID 0000.0001)           No. stops: 20
(PID.TID 0000.0001)   Seconds in section "DYNAMICS            [FORWARD_STEP]":
(PID.TID 0000.0001)           User time:  0.159999974
(PID.TID 0000.0001)         System time:  0.
(PID.TID 0000.0001)     Wall clock time:  0.148086071
(PID.TID 0000.0001)          No. starts: 10
(PID.TID 0000.0001)           No. stops: 10
(PID.TID 0000.0001)   Seconds in section "SOLVE_FOR_PRESSURE  [FORWARD_STEP]":
(PID.TID 0000.0001)           User time:  0.139999986
(PID.TID 0000.0001)         System time:  0.
(PID.TID 0000.0001)     Wall clock time:  0.151831031
(PID.TID 0000.0001)          No. starts: 10
(PID.TID 0000.0001)           No. stops: 10
(PID.TID 0000.0001)   Seconds in section "THE_CORRECTION_STEP [FORWARD_STEP]":
(PID.TID 0000.0001)           User time:  0.00999999046
(PID.TID 0000.0001)         System time:  0.
(PID.TID 0000.0001)     Wall clock time:  0.015012145
(PID.TID 0000.0001)          No. starts: 10
(PID.TID 0000.0001)           No. stops: 10
(PID.TID 0000.0001)   Seconds in section "MONITOR             [FORWARD_STEP]":
(PID.TID 0000.0001)           User time:  0.130000085
(PID.TID 0000.0001)         System time:  0.
(PID.TID 0000.0001)     Wall clock time:  0.138813972
(PID.TID 0000.0001)          No. starts: 10
(PID.TID 0000.0001)           No. stops: 10
(PID.TID 0000.0001)   Seconds in section "DO_THE_MODEL_IO     [FORWARD_STEP]":
(PID.TID 0000.0001)           User time:  0.00999999046
(PID.TID 0000.0001)         System time:  0.0199999996
(PID.TID 0000.0001)     Wall clock time:  0.0284540653
(PID.TID 0000.0001)          No. starts: 10
(PID.TID 0000.0001)           No. stops: 10
(PID.TID 0000.0001)   Seconds in section "WRITE_CHECKPOINT    [FORWARD_STEP]":
(PID.TID 0000.0001)           User time:  0.
(PID.TID 0000.0001)         System time:  0.
(PID.TID 0000.0001)     Wall clock time:  0.000201821327
(PID.TID 0000.0001)          No. starts: 10
(PID.TID 0000.0001)           No. stops: 10
(PID.TID 0000.0001)   Seconds in section "WRITE_CHECKPOINT       [THE_MODEL_MAIN]":
(PID.TID 0000.0001)           User time:  0.0299999714
(PID.TID 0000.0001)         System time:  0.0300000049
(PID.TID 0000.0001)     Wall clock time:  0.0595400333
(PID.TID 0000.0001)          No. starts: 1
(PID.TID 0000.0001)           No. stops: 1
(PID.TID 0000.0001) // ======================================================
(PID.TID 0000.0001) // Tile <-> Tile communication statistics
(PID.TID 0000.0001) // ======================================================
(PID.TID 0000.0001) // o Tile number: 000001
(PID.TID 0000.0001) //         No. X exchanges =              0
(PID.TID 0000.0001) //            Max. X spins =              0
(PID.TID 0000.0001) //            Min. X spins =     1000000000
(PID.TID 0000.0001) //          Total. X spins =              0
(PID.TID 0000.0001) //            Avg. X spins =       0.00E+00
(PID.TID 0000.0001) //         No. Y exchanges =              0
(PID.TID 0000.0001) //            Max. Y spins =              0
(PID.TID 0000.0001) //            Min. Y spins =     1000000000
(PID.TID 0000.0001) //          Total. Y spins =              0
(PID.TID 0000.0001) //            Avg. Y spins =       0.00E+00
(PID.TID 0000.0001) // o Tile number: 000002
(PID.TID 0000.0001) //         No. X exchanges =              0
(PID.TID 0000.0001) //            Max. X spins =              0
(PID.TID 0000.0001) //            Min. X spins =     1000000000
(PID.TID 0000.0001) //          Total. X spins =              0
(PID.TID 0000.0001) //            Avg. X spins =       0.00E+00
(PID.TID 0000.0001) //         No. Y exchanges =              0
(PID.TID 0000.0001) //            Max. Y spins =              0
(PID.TID 0000.0001) //            Min. Y spins =     1000000000
(PID.TID 0000.0001) //          Total. Y spins =              0
(PID.TID 0000.0001) //            Avg. Y spins =       0.00E+00
(PID.TID 0000.0001) // o Tile number: 000003
(PID.TID 0000.0001) //         No. X exchanges =              0
(PID.TID 0000.0001) //            Max. X spins =              0
(PID.TID 0000.0001) //            Min. X spins =     1000000000
(PID.TID 0000.0001) //          Total. X spins =              0
(PID.TID 0000.0001) //            Avg. X spins =       0.00E+00
(PID.TID 0000.0001) //         No. Y exchanges =              0
(PID.TID 0000.0001) //            Max. Y spins =              0
(PID.TID 0000.0001) //            Min. Y spins =     1000000000
(PID.TID 0000.0001) //          Total. Y spins =              0
(PID.TID 0000.0001) //            Avg. Y spins =       0.00E+00
(PID.TID 0000.0001) // o Tile number: 000004
(PID.TID 0000.0001) //         No. X exchanges =              0
(PID.TID 0000.0001) //            Max. X spins =              0
(PID.TID 0000.0001) //            Min. X spins =     1000000000
(PID.TID 0000.0001) //          Total. X spins =              0
(PID.TID 0000.0001) //            Avg. X spins =       0.00E+00
(PID.TID 0000.0001) //         No. Y exchanges =              0
(PID.TID 0000.0001) //            Max. Y spins =              0
(PID.TID 0000.0001) //            Min. Y spins =     1000000000
(PID.TID 0000.0001) //          Total. Y spins =              0
(PID.TID 0000.0001) //            Avg. Y spins =       0.00E+00
(PID.TID 0000.0001) // o Thread number: 000001
(PID.TID 0000.0001) //            No. barriers =           9574
(PID.TID 0000.0001) //      Max. barrier spins =              1
(PID.TID 0000.0001) //      Min. barrier spins =              1
(PID.TID 0000.0001) //     Total barrier spins =           9574
(PID.TID 0000.0001) //      Avg. barrier spins =       1.00E+00
