(PID.TID 0000.0001) 
(PID.TID 0000.0001) // ======================================================
(PID.TID 0000.0001) //                      MITgcm UV
(PID.TID 0000.0001) //                      =========
(PID.TID 0000.0001) // ======================================================
(PID.TID 0000.0001) // execution environment starting up...
(PID.TID 0000.0001) // Run starting Wed Apr  1 14:19:48 1998
(PID.TID 0000.0001) // on melville.lcs.mit.edu
(PID.TID 0000.0001) // account cnh
(PID.TID 0000.0001) // MITgcm UV Release: $Name:  $
(PID.TID 0000.0001) 
(PID.TID 0000.0001) // =======================================================
(PID.TID 0000.0001) // Execution Environment parameter file "eedata"
(PID.TID 0000.0001) // =======================================================
(PID.TID 0000.0001) ># Example "eedata" file
(PID.TID 0000.0001) ># Lines beginning "#" are comments
(PID.TID 0000.0001) ># nTx - No. threads per process in X
(PID.TID 0000.0001) ># nTy - No. threads per process in Y
(PID.TID 0000.0001) > &EEPARMS
(PID.TID 0000.0001) > nTx=1,nTy=1,
(PID.TID 0000.0001) > &
(PID.TID 0000.0001) ># Note: Some systems use & as the
(PID.TID 0000.0001) ># namelist terminator. Other systems
(PID.TID 0000.0001) ># use a / character (as shown here).
(PID.TID 0000.0001) 
(PID.TID 0000.0001) // =======================================================
(PID.TID 0000.0001) // Computational Grid Specification ( see files "SIZE.h" )
(PID.TID 0000.0001) //                                  ( and "eedata"       )
(PID.TID 0000.0001) // =======================================================
(PID.TID 0000.0001)      nPx =    1 ; /* No. processes in X */
(PID.TID 0000.0001)      nPy =    1 ; /* No. processes in Y */
(PID.TID 0000.0001)      nSx =    2 ; /* No. tiles in X per process */
(PID.TID 0000.0001)      nSy =    2 ; /* No. tiles in Y per process */
(PID.TID 0000.0001)      sNx =   30 ; /* Tile size in X */
(PID.TID 0000.0001)      sNy =   30 ; /* Tile size in Y */
(PID.TID 0000.0001)      OLx =    3 ; /* Tile overlap distance in X */
(PID.TID 0000.0001)      OLy =    3 ; /* Tile overlap distance in Y */
(PID.TID 0000.0001)      nTx =    1 ; /* No. threads in X per process */
(PID.TID 0000.0001)      nTy =    1 ; /* No. threads in Y per process */
(PID.TID 0000.0001)       Nr =    4 ; /* No. levels in the vertical   */
(PID.TID 0000.0001)       nX =   60 ; /* Total domain size in X ( = nPx*nSx*sNx ) */
(PID.TID 0000.0001)       nY =   60 ; /* Total domain size in Y ( = nPy*nSy*sNy ) */
(PID.TID 0000.0001)   nTiles =    4 ; /* Total no. tiles per process ( = nSx*nSy ) */
(PID.TID 0000.0001)   nProcs =    1 ; /* Total no. processes ( = nPx*nPy ) */
(PID.TID 0000.0001) nThreads =    1 ; /* Total no. threads per process ( = nTx*nTy ) */
(PID.TID 0000.0001) usingMPI =    F ; /* Flag used to control whether MPI is in use */
(PID.TID 0000.0001)                   /*  note: To execute a program with MPI calls */
(PID.TID 0000.0001)                   /*  it must be launched appropriately e.g     */
(PID.TID 0000.0001)                   /*  "mpirun -np 64 ......"                    */
(PID.TID 0000.0001) 
(PID.TID 0000.0001) // ======================================================
(PID.TID 0000.0001) // Mapping of tiles to threads
(PID.TID 0000.0001) // ======================================================
(PID.TID 0000.0001) // -o- Thread   1, tiles (   1:   2,   1:   2)
(PID.TID 0000.0001) 
(PID.TID 0000.0001) // ======================================================
(PID.TID 0000.0001) // Tile <-> Tile connectvity table
(PID.TID 0000.0001) // ======================================================
(PID.TID 0000.0001) // Tile number: 000001 (process no. = 000001)
(PID.TID 0000.0001) //        WEST: Tile = 000002, Process = 000001, Comm = put
(PID.TID 0000.0001) //                bi = 000002, bj = 000001
(PID.TID 0000.0001) //        EAST: Tile = 000002, Process = 000001, Comm = put
(PID.TID 0000.0001) //                bi = 000002, bj = 000001
(PID.TID 0000.0001) //       SOUTH: Tile = 000003, Process = 000001, Comm = put
(PID.TID 0000.0001) //                bi = 000001, bj = 000002
(PID.TID 0000.0001) //       NORTH: Tile = 000003, Process = 000001, Comm = put
(PID.TID 0000.0001) //                bi = 000001, bj = 000002
(PID.TID 0000.0001) // Tile number: 000002 (process no. = 000001)
(PID.TID 0000.0001) //        WEST: Tile = 000001, Process = 000001, Comm = put
(PID.TID 0000.0001) //                bi = 000001, bj = 000001
(PID.TID 0000.0001) //        EAST: Tile = 000001, Process = 000001, Comm = put
(PID.TID 0000.0001) //                bi = 000001, bj = 000001
(PID.TID 0000.0001) //       SOUTH: Tile = 000004, Process = 000001, Comm = put
(PID.TID 0000.0001) //                bi = 000002, bj = 000002
(PID.TID 0000.0001) //       NORTH: Tile = 000004, Process = 000001, Comm = put
(PID.TID 0000.0001) //                bi = 000002, bj = 000002
(PID.TID 0000.0001) // Tile number: 000003 (process no. = 000001)
(PID.TID 0000.0001) //        WEST: Tile = 000004, Process = 000001, Comm = put
(PID.TID 0000.0001) //                bi = 000002, bj = 000002
(PID.TID 0000.0001) //        EAST: Tile = 000004, Process = 000001, Comm = put
(PID.TID 0000.0001) //                bi = 000002, bj = 000002
(PID.TID 0000.0001) //       SOUTH: Tile = 000001, Process = 000001, Comm = put
(PID.TID 0000.0001) //                bi = 000001, bj = 000001
(PID.TID 0000.0001) //       NORTH: Tile = 000001, Process = 000001, Comm = put
(PID.TID 0000.0001) //                bi = 000001, bj = 000001
(PID.TID 0000.0001) // Tile number: 000004 (process no. = 000001)
(PID.TID 0000.0001) //        WEST: Tile = 000003, Process = 000001, Comm = put
(PID.TID 0000.0001) //                bi = 000001, bj = 000002
(PID.TID 0000.0001) //        EAST: Tile = 000003, Process = 000001, Comm = put
(PID.TID 0000.0001) //                bi = 000001, bj = 000002
(PID.TID 0000.0001) //       SOUTH: Tile = 000002, Process = 000001, Comm = put
(PID.TID 0000.0001) //                bi = 000002, bj = 000001
(PID.TID 0000.0001) //       NORTH: Tile = 000002, Process = 000001, Comm = put
(PID.TID 0000.0001) //                bi = 000002, bj = 000001
(PID.TID 0000.0001) 
(PID.TID 0000.0001) // =======================================================
(PID.TID 0000.0001) // Model parameter file "data"
(PID.TID 0000.0001) // =======================================================
(PID.TID 0000.0001) ># Model parameters
(PID.TID 0000.0001) ># Continuous equation parameters
(PID.TID 0000.0001) > &PARM01
(PID.TID 0000.0001) > tRef=20.,10.,8.,6.,
(PID.TID 0000.0001) > sRef=10.,10.,10.,10.,
(PID.TID 0000.0001) > viscAz=1.E-2,
(PID.TID 0000.0001) > viscAh=4.E2,
(PID.TID 0000.0001) > no_slip_sides=.FALSE.,
(PID.TID 0000.0001) > no_slip_bottom=.TRUE.,
(PID.TID 0000.0001) > diffKhT=4.E2,
(PID.TID 0000.0001) > diffKzT=1.E-2,
(PID.TID 0000.0001) > beta=1.E-11,
(PID.TID 0000.0001) > tAlpha=2.E-4,
(PID.TID 0000.0001) > sBeta =0.,
(PID.TID 0000.0001) > gravity=9.81,
(PID.TID 0000.0001) > rigidLid=.FALSE.,
(PID.TID 0000.0001) > implicitFreeSurface=.TRUE.,
(PID.TID 0000.0001) > eosType='LINEAR',
(PID.TID 0000.0001) > readBinaryPrec=64,
(PID.TID 0000.0001) > &
(PID.TID 0000.0001) ># Elliptic solver parameters
(PID.TID 0000.0001) > &PARM02
(PID.TID 0000.0001) > cg2dMaxIters=1000,
(PID.TID 0000.0001) > cg2dTargetResidual=1.E-13,
(PID.TID 0000.0001) > &
(PID.TID 0000.0001) ># Time stepping parameters
(PID.TID 0000.0001) > &PARM03
(PID.TID 0000.0001) > startTime=0.,
(PID.TID 0000.0001) > endTime=12000.,
(PID.TID 0000.0001) > deltaTmom=1200.0,
(PID.TID 0000.0001) > deltaTtracer=1200.0,
(PID.TID 0000.0001) > abEps=0.1,
(PID.TID 0000.0001) > pChkptFreq=17000.0,
(PID.TID 0000.0001) > chkptFreq=0.0,
(PID.TID 0000.0001) > dumpFreq=2592000.0,
(PID.TID 0000.0001) > monitorFreq=1.,
(PID.TID 0000.0001) > &
(PID.TID 0000.0001) ># Gridding parameters
(PID.TID 0000.0001) > &PARM04
(PID.TID 0000.0001) > usingCartesianGrid=.FALSE.,
(PID.TID 0000.0001) > usingSphericalPolarGrid=.TRUE.,
(PID.TID 0000.0001) > phiMin=-30.,
(PID.TID 0000.0001) > delX=60*1.,
(PID.TID 0000.0001) > delY=60*1.,
(PID.TID 0000.0001) > delZ=500.,500.,500.,500.,
(PID.TID 0000.0001) > &
(PID.TID 0000.0001) > &PARM05
(PID.TID 0000.0001) > bathyFile='topog.box',
(PID.TID 0000.0001) > hydrogThetaFile=,
(PID.TID 0000.0001) > hydrogSaltFile=,
(PID.TID 0000.0001) > zonalWindFile='windx.sin_y',
(PID.TID 0000.0001) > meridWindFile=,
(PID.TID 0000.0001) > &
(PID.TID 0000.0001) 
(PID.TID 0000.0001) S/R INI_PARMS ; read PARM01 : OK
(PID.TID 0000.0001) S/R INI_PARMS ; read PARM02 : OK
(PID.TID 0000.0001) S/R INI_PARMS ; read PARM03 : OK
(PID.TID 0000.0001) S/R INI_PARMS ; read PARM04 : OK
(PID.TID 0000.0001) S/R INI_PARMS ; read PARM05 : OK
(PID.TID 0000.0001) %MON XC_max                       =   5.9500000000000E+01
(PID.TID 0000.0001) %MON XC_min                       =   5.0000000000000E-01
(PID.TID 0000.0001) %MON XC_mean                      =   3.0000000000000E+01
(PID.TID 0000.0001) %MON XC_sd                        =   1.7318102282487E+01
(PID.TID 0000.0001) %MON XG_max                       =   5.9000000000000E+01
(PID.TID 0000.0001) %MON XG_min                       =   1.0000000000000E+00
(PID.TID 0000.0001) %MON XG_mean                      =   3.0000000000000E+01
(PID.TID 0000.0001) %MON XG_sd                        =   1.7029386365926E+01
(PID.TID 0000.0001) %MON DXC_max                      =   1.1117324005452E+05
(PID.TID 0000.0001) %MON DXC_min                      =   9.6763947192153E+04
(PID.TID 0000.0001) %MON DXC_mean                     =   1.0616801418764E+05
(PID.TID 0000.0001) %MON DXC_sd                       =   4.4524656773709E+03
(PID.TID 0000.0001) %MON DXF_max                      =   1.1117324005452E+05
(PID.TID 0000.0001) %MON DXF_min                      =   9.6763947192153E+04
(PID.TID 0000.0001) %MON DXF_mean                     =   1.0616801418764E+05
(PID.TID 0000.0001) %MON DXF_sd                       =   4.4524656773709E+03
(PID.TID 0000.0001) %MON DXG_max                      =   1.1117747335204E+05
(PID.TID 0000.0001) %MON DXG_min                      =   9.6282516251433E+04
(PID.TID 0000.0001) %MON DXG_mean                     =   1.0616397163498E+05
(PID.TID 0000.0001) %MON DXG_sd                       =   4.4614285533686E+03
(PID.TID 0000.0001) %MON DXV_max                      =   1.1117747335204E+05
(PID.TID 0000.0001) %MON DXV_min                      =   9.6282516251433E+04
(PID.TID 0000.0001) %MON DXV_mean                     =   1.0616397163498E+05
(PID.TID 0000.0001) %MON DXV_sd                       =   4.4614285533686E+03
(PID.TID 0000.0001) %MON YC_max                       =   2.9500000000000E+01
(PID.TID 0000.0001) %MON YC_min                       =  -2.9500000000000E+01
(PID.TID 0000.0001) %MON YC_mean                      =   0.0000000000000E+00
(PID.TID 0000.0001) %MON YC_sd                        =   1.7318102282487E+01
(PID.TID 0000.0001) %MON YG_max                       =   2.9000000000000E+01
(PID.TID 0000.0001) %MON YG_min                       =  -3.0000000000000E+01
(PID.TID 0000.0001) %MON YG_mean                      =  -5.0847457627119E-01
(PID.TID 0000.0001) %MON YG_sd                        =   1.7464125826775E+01
(PID.TID 0000.0001) %MON DYC_max                      =   1.1117747335204E+05
(PID.TID 0000.0001) %MON DYC_min                      =   1.1117747335204E+05
(PID.TID 0000.0001) %MON DYC_mean                     =   1.1117747335203E+05
(PID.TID 0000.0001) %MON DYC_sd                       =   4.9622030928731E-09
(PID.TID 0000.0001) %MON DYF_max                      =   1.1117747335204E+05
(PID.TID 0000.0001) %MON DYF_min                      =   1.1117747335204E+05
(PID.TID 0000.0001) %MON DYF_mean                     =   1.1117747335203E+05
(PID.TID 0000.0001) %MON DYF_sd                       =   4.9622030928731E-09
(PID.TID 0000.0001) %MON DYG_max                      =   1.1117747335204E+05
(PID.TID 0000.0001) %MON DYG_min                      =   1.1117747335204E+05
(PID.TID 0000.0001) %MON DYG_mean                     =   1.1117747335203E+05
(PID.TID 0000.0001) %MON DYG_sd                       =   4.9622030928731E-09
(PID.TID 0000.0001) %MON DYU_max                      =   1.1117747335204E+05
(PID.TID 0000.0001) %MON DYU_min                      =   1.1117747335204E+05
(PID.TID 0000.0001) %MON DYU_mean                     =   1.1117747335203E+05
(PID.TID 0000.0001) %MON DYU_sd                       =   4.9622030928731E-09
(PID.TID 0000.0001) %MON RA_max                       =   1.2359803056756E+10
(PID.TID 0000.0001) %MON RA_min                       =   1.0757834616521E+10
(PID.TID 0000.0001) %MON RA_mean                      =   1.1803341754208E+10
(PID.TID 0000.0001) %MON RA_sd                        =   4.9500760131018E+08
(PID.TID 0000.0001) %MON RAW_max                      =   1.2359803056756E+10
(PID.TID 0000.0001) %MON RAW_min                      =   1.0757834616521E+10
(PID.TID 0000.0001) %MON RAW_mean                     =   1.1803341754208E+10
(PID.TID 0000.0001) %MON RAW_sd                       =   4.9500760131018E+08
(PID.TID 0000.0001) %MON RAS_max                      =   1.2360273698104E+10
(PID.TID 0000.0001) %MON RAS_min                      =   1.0704311020287E+10
(PID.TID 0000.0001) %MON RAS_mean                     =   1.1802892319122E+10
(PID.TID 0000.0001) %MON RAS_sd                       =   4.9600405857003E+08
(PID.TID 0000.0001) %MON RAZ_max                      =   1.2360273698104E+10
(PID.TID 0000.0001) %MON RAZ_min                      =   1.0704311020287E+10
(PID.TID 0000.0001) %MON RAZ_mean                     =   1.1802892319122E+10
(PID.TID 0000.0001) %MON RAZ_sd                       =   4.9600405857003E+08
(PID.TID 0000.0001)  MDSREADFIELD: opening global file: topog.box
(PID.TID 0000.0001) // =======================================================
(PID.TID 0000.0001) // Field Model R_low (ini_masks_etc) at iteration          1
(PID.TID 0000.0001) // CMIN =         -2.000000000000000E+03
(PID.TID 0000.0001) // CMAX =         -2.000000000000000E+03
(PID.TID 0000.0001) // CINT =          0.000000000000000E+00
(PID.TID 0000.0001) // SYMBOLS (CMIN->CMAX): -abcdefghijklmnopqrstuvwxyz+
(PID.TID 0000.0001) //                  0.0: .
(PID.TID 0000.0001) // RANGE I (Lo:Hi:Step):(  -2:  63:   1)
(PID.TID 0000.0001) // RANGE J (Lo:Hi:Step):(  63:  -2:  -1)
(PID.TID 0000.0001) // RANGE K (Lo:Hi:Step):(   1:   1:   1)
(PID.TID 0000.0001) // =======================================================
(PID.TID 0000.0001) K =   1
(PID.TID 0000.0001) //                I=7       I=17      I=27      I=31      I=41      I=51      I=61
(PID.TID 0000.0001) // |--J--|**0123456|890123456|890123456|890123890|234567890|234567890|234567890|23
(PID.TID 0000.0001) //     63 --.-----------------------------------------------------------------.---
(PID.TID 0000.0001) //     62 --.-----------------------------------------------------------------.---
(PID.TID 0000.0001) //     61 --.-----------------------------------------------------------------.---
(PID.TID 0000.0001) //     60 ........................................................................
(PID.TID 0000.0001) //     59 --.-----------------------------------------------------------------.---
(PID.TID 0000.0001) //     58 --.-----------------------------------------------------------------.---
(PID.TID 0000.0001) //     57 --.-----------------------------------------------------------------.---
(PID.TID 0000.0001) //     56 --.-----------------------------------------------------------------.---
(PID.TID 0000.0001) //     55 --.-----------------------------------------------------------------.---
(PID.TID 0000.0001) //     54 --.-----------------------------------------------------------------.---
(PID.TID 0000.0001) //     53 --.-----------------------------------------------------------------.---
(PID.TID 0000.0001) //     52 --.-----------------------------------------------------------------.---
(PID.TID 0000.0001) //     51 --.-----------------------------------------------------------------.---
(PID.TID 0000.0001) //     50 --.-----------------------------------------------------------------.---
(PID.TID 0000.0001) //     49 --.-----------------------------------------------------------------.---
(PID.TID 0000.0001) //     48 --.-----------------------------------------------------------------.---
(PID.TID 0000.0001) //     47 --.-----------------------------------------------------------------.---
(PID.TID 0000.0001) //     46 --.-----------------------------------------------------------------.---
(PID.TID 0000.0001) //     45 --.-----------------------------------------------------------------.---
(PID.TID 0000.0001) //     44 --.-----------------------------------------------------------------.---
(PID.TID 0000.0001) //     43 --.-----------------------------------------------------------------.---
(PID.TID 0000.0001) //     42 --.-----------------------------------------------------------------.---
(PID.TID 0000.0001) //     41 --.-----------------------------------------------------------------.---
(PID.TID 0000.0001) //     40 --.-----------------------------------------------------------------.---
(PID.TID 0000.0001) //     39 --.-----------------------------------------------------------------.---
(PID.TID 0000.0001) //     38 --.-----------------------------------------------------------------.---
(PID.TID 0000.0001) //     37 --.-----------------------------------------------------------------.---
(PID.TID 0000.0001) //     36 --.-----------------------------------------------------------------.---
(PID.TID 0000.0001) //     35 --.-----------------------------------------------------------------.---
(PID.TID 0000.0001) //     34 --.-----------------------------------------------------------------.---
(PID.TID 0000.0001) //     33 --.-----------------------------------------------------------------.---
(PID.TID 0000.0001) //     32 --.-----------------------------------------------------------------.---
(PID.TID 0000.0001) //     31 --.-----------------------------------------------------------------.---
(PID.TID 0000.0001) //     30 --.-----------------------------------------------------------------.---
(PID.TID 0000.0001) //     29 --.-----------------------------------------------------------------.---
(PID.TID 0000.0001) //     28 --.-----------------------------------------------------------------.---
(PID.TID 0000.0001) //     33 --.-----------------------------------------------------------------.---
(PID.TID 0000.0001) //     32 --.-----------------------------------------------------------------.---
(PID.TID 0000.0001) //     31 --.-----------------------------------------------------------------.---
(PID.TID 0000.0001) //     30 --.-----------------------------------------------------------------.---
(PID.TID 0000.0001) //     29 --.-----------------------------------------------------------------.---
(PID.TID 0000.0001) //     28 --.-----------------------------------------------------------------.---
(PID.TID 0000.0001) //     27 --.-----------------------------------------------------------------.---
(PID.TID 0000.0001) //     26 --.-----------------------------------------------------------------.---
(PID.TID 0000.0001) //     25 --.-----------------------------------------------------------------.---
(PID.TID 0000.0001) //     24 --.-----------------------------------------------------------------.---
(PID.TID 0000.0001) //     23 --.-----------------------------------------------------------------.---
(PID.TID 0000.0001) //     22 --.-----------------------------------------------------------------.---
(PID.TID 0000.0001) //     21 --.-----------------------------------------------------------------.---
(PID.TID 0000.0001) //     20 --.-----------------------------------------------------------------.---
(PID.TID 0000.0001) //     19 --.-----------------------------------------------------------------.---
(PID.TID 0000.0001) //     18 --.-----------------------------------------------------------------.---
(PID.TID 0000.0001) //     17 --.-----------------------------------------------------------------.---
(PID.TID 0000.0001) //     16 --.-----------------------------------------------------------------.---
(PID.TID 0000.0001) //     15 --.-----------------------------------------------------------------.---
(PID.TID 0000.0001) //     14 --.-----------------------------------------------------------------.---
(PID.TID 0000.0001) //     13 --.-----------------------------------------------------------------.---
(PID.TID 0000.0001) //     12 --.-----------------------------------------------------------------.---
(PID.TID 0000.0001) //     11 --.-----------------------------------------------------------------.---
(PID.TID 0000.0001) //     10 --.-----------------------------------------------------------------.---
(PID.TID 0000.0001) //      9 --.-----------------------------------------------------------------.---
(PID.TID 0000.0001) //      8 --.-----------------------------------------------------------------.---
(PID.TID 0000.0001) //      7 --.-----------------------------------------------------------------.---
(PID.TID 0000.0001) //      6 --.-----------------------------------------------------------------.---
(PID.TID 0000.0001) //      5 --.-----------------------------------------------------------------.---
(PID.TID 0000.0001) //      4 --.-----------------------------------------------------------------.---
(PID.TID 0000.0001) //      3 --.-----------------------------------------------------------------.---
(PID.TID 0000.0001) //      2 --.-----------------------------------------------------------------.---
(PID.TID 0000.0001) //      1 --.-----------------------------------------------------------------.---
(PID.TID 0000.0001) //      0 ........................................................................
(PID.TID 0000.0001) //     -1 --.-----------------------------------------------------------------.---
(PID.TID 0000.0001) //     -2 --.-----------------------------------------------------------------.---
(PID.TID 0000.0001) // =======================================================
(PID.TID 0000.0001) // END OF FIELD                                          =
(PID.TID 0000.0001) // =======================================================
(PID.TID 0000.0001) 
(PID.TID 0000.0001) // =======================================================
(PID.TID 0000.0001) // Field Model Ro_surf (ini_masks_etc) at iteration          1
(PID.TID 0000.0001) // CMIN =          1.000000000000000E+32
(PID.TID 0000.0001) // CMAX =         -1.000000000000000E+32
(PID.TID 0000.0001) // CINT =          0.000000000000000E+00
(PID.TID 0000.0001) // SYMBOLS (CMIN->CMAX): -abcdefghijklmnopqrstuvwxyz+
(PID.TID 0000.0001) //                  0.0: .
(PID.TID 0000.0001) // RANGE I (Lo:Hi:Step):(  -2:  63:   1)
(PID.TID 0000.0001) // RANGE J (Lo:Hi:Step):(  63:  -2:  -1)
(PID.TID 0000.0001) // RANGE K (Lo:Hi:Step):(   1:   1:   1)
(PID.TID 0000.0001) // =======================================================
(PID.TID 0000.0001) K =   1
(PID.TID 0000.0001) //                I=7       I=17      I=27      I=31      I=41      I=51      I=61
(PID.TID 0000.0001) // |--J--|**0123456|890123456|890123456|890123890|234567890|234567890|234567890|23
(PID.TID 0000.0001) //     63 ........................................................................
(PID.TID 0000.0001) //     62 ........................................................................
(PID.TID 0000.0001) //     61 ........................................................................
(PID.TID 0000.0001) //     60 ........................................................................
(PID.TID 0000.0001) //     59 ........................................................................
(PID.TID 0000.0001) //     58 ........................................................................
(PID.TID 0000.0001) //     57 ........................................................................
(PID.TID 0000.0001) //     56 ........................................................................
(PID.TID 0000.0001) //     55 ........................................................................
(PID.TID 0000.0001) //     54 ........................................................................
(PID.TID 0000.0001) //     53 ........................................................................
(PID.TID 0000.0001) //     52 ........................................................................
(PID.TID 0000.0001) //     51 ........................................................................
(PID.TID 0000.0001) //     50 ........................................................................
(PID.TID 0000.0001) //     49 ........................................................................
(PID.TID 0000.0001) //     48 ........................................................................
(PID.TID 0000.0001) //     47 ........................................................................
(PID.TID 0000.0001) //     46 ........................................................................
(PID.TID 0000.0001) //     45 ........................................................................
(PID.TID 0000.0001) //     44 ........................................................................
(PID.TID 0000.0001) //     43 ........................................................................
(PID.TID 0000.0001) //     42 ........................................................................
(PID.TID 0000.0001) //     41 ........................................................................
(PID.TID 0000.0001) //     40 ........................................................................
(PID.TID 0000.0001) //     39 ........................................................................
(PID.TID 0000.0001) //     38 ........................................................................
(PID.TID 0000.0001) //     37 ........................................................................
(PID.TID 0000.0001) //     36 ........................................................................
(PID.TID 0000.0001) //     35 ........................................................................
(PID.TID 0000.0001) //     34 ........................................................................
(PID.TID 0000.0001) //     33 ........................................................................
(PID.TID 0000.0001) //     32 ........................................................................
(PID.TID 0000.0001) //     31 ........................................................................
(PID.TID 0000.0001) //     30 ........................................................................
(PID.TID 0000.0001) //     29 ........................................................................
(PID.TID 0000.0001) //     28 ........................................................................
(PID.TID 0000.0001) //     33 ........................................................................
(PID.TID 0000.0001) //     32 ........................................................................
(PID.TID 0000.0001) //     31 ........................................................................
(PID.TID 0000.0001) //     30 ........................................................................
(PID.TID 0000.0001) //     29 ........................................................................
(PID.TID 0000.0001) //     28 ........................................................................
(PID.TID 0000.0001) //     27 ........................................................................
(PID.TID 0000.0001) //     26 ........................................................................
(PID.TID 0000.0001) //     25 ........................................................................
(PID.TID 0000.0001) //     24 ........................................................................
(PID.TID 0000.0001) //     23 ........................................................................
(PID.TID 0000.0001) //     22 ........................................................................
(PID.TID 0000.0001) //     21 ........................................................................
(PID.TID 0000.0001) //     20 ........................................................................
(PID.TID 0000.0001) //     19 ........................................................................
(PID.TID 0000.0001) //     18 ........................................................................
(PID.TID 0000.0001) //     17 ........................................................................
(PID.TID 0000.0001) //     16 ........................................................................
(PID.TID 0000.0001) //     15 ........................................................................
(PID.TID 0000.0001) //     14 ........................................................................
(PID.TID 0000.0001) //     13 ........................................................................
(PID.TID 0000.0001) //     12 ........................................................................
(PID.TID 0000.0001) //     11 ........................................................................
(PID.TID 0000.0001) //     10 ........................................................................
(PID.TID 0000.0001) //      9 ........................................................................
(PID.TID 0000.0001) //      8 ........................................................................
(PID.TID 0000.0001) //      7 ........................................................................
(PID.TID 0000.0001) //      6 ........................................................................
(PID.TID 0000.0001) //      5 ........................................................................
(PID.TID 0000.0001) //      4 ........................................................................
(PID.TID 0000.0001) //      3 ........................................................................
(PID.TID 0000.0001) //      2 ........................................................................
(PID.TID 0000.0001) //      1 ........................................................................
(PID.TID 0000.0001) //      0 ........................................................................
(PID.TID 0000.0001) //     -1 ........................................................................
(PID.TID 0000.0001) //     -2 ........................................................................
(PID.TID 0000.0001) // =======================================================
(PID.TID 0000.0001) // END OF FIELD                                          =
(PID.TID 0000.0001) // =======================================================
(PID.TID 0000.0001) 
(PID.TID 0000.0001) // =======================================================
(PID.TID 0000.0001) // Field hFacC at iteration          1
(PID.TID 0000.0001) // CMIN =          1.000000000000000E+00
(PID.TID 0000.0001) // CMAX =          1.000000000000000E+00
(PID.TID 0000.0001) // CINT =          0.000000000000000E+00
(PID.TID 0000.0001) // SYMBOLS (CMIN->CMAX): -abcdefghijklmnopqrstuvwxyz+
(PID.TID 0000.0001) //                  0.0: .
(PID.TID 0000.0001) // RANGE I (Lo:Hi:Step):(  -2:  63:   1)
(PID.TID 0000.0001) // RANGE J (Lo:Hi:Step):(  63:  -2:  -1)
(PID.TID 0000.0001) // RANGE K (Lo:Hi:Step):(   1:   1:   1)
(PID.TID 0000.0001) // =======================================================
(PID.TID 0000.0001) K =   1
(PID.TID 0000.0001) //                I=7       I=17      I=27      I=31      I=41      I=51      I=61
(PID.TID 0000.0001) // |--J--|**0123456|890123456|890123456|890123890|234567890|234567890|234567890|23
(PID.TID 0000.0001) //     63 --.-----------------------------------------------------------------.---
(PID.TID 0000.0001) //     62 --.-----------------------------------------------------------------.---
(PID.TID 0000.0001) //     61 --.-----------------------------------------------------------------.---
(PID.TID 0000.0001) //     60 ........................................................................
(PID.TID 0000.0001) //     59 --.-----------------------------------------------------------------.---
(PID.TID 0000.0001) //     58 --.-----------------------------------------------------------------.---
(PID.TID 0000.0001) //     57 --.-----------------------------------------------------------------.---
(PID.TID 0000.0001) //     56 --.-----------------------------------------------------------------.---
(PID.TID 0000.0001) //     55 --.-----------------------------------------------------------------.---
(PID.TID 0000.0001) //     54 --.-----------------------------------------------------------------.---
(PID.TID 0000.0001) //     53 --.-----------------------------------------------------------------.---
(PID.TID 0000.0001) //     52 --.-----------------------------------------------------------------.---
(PID.TID 0000.0001) //     51 --.-----------------------------------------------------------------.---
(PID.TID 0000.0001) //     50 --.-----------------------------------------------------------------.---
(PID.TID 0000.0001) //     49 --.-----------------------------------------------------------------.---
(PID.TID 0000.0001) //     48 --.-----------------------------------------------------------------.---
(PID.TID 0000.0001) //     47 --.-----------------------------------------------------------------.---
(PID.TID 0000.0001) //     46 --.-----------------------------------------------------------------.---
(PID.TID 0000.0001) //     45 --.-----------------------------------------------------------------.---
(PID.TID 0000.0001) //     44 --.-----------------------------------------------------------------.---
(PID.TID 0000.0001) //     43 --.-----------------------------------------------------------------.---
(PID.TID 0000.0001) //     42 --.-----------------------------------------------------------------.---
(PID.TID 0000.0001) //     41 --.-----------------------------------------------------------------.---
(PID.TID 0000.0001) //     40 --.-----------------------------------------------------------------.---
(PID.TID 0000.0001) //     39 --.-----------------------------------------------------------------.---
(PID.TID 0000.0001) //     38 --.-----------------------------------------------------------------.---
(PID.TID 0000.0001) //     37 --.-----------------------------------------------------------------.---
(PID.TID 0000.0001) //     36 --.-----------------------------------------------------------------.---
(PID.TID 0000.0001) //     35 --.-----------------------------------------------------------------.---
(PID.TID 0000.0001) //     34 --.-----------------------------------------------------------------.---
(PID.TID 0000.0001) //     33 --.-----------------------------------------------------------------.---
(PID.TID 0000.0001) //     32 --.-----------------------------------------------------------------.---
(PID.TID 0000.0001) //     31 --.-----------------------------------------------------------------.---
(PID.TID 0000.0001) //     30 --.-----------------------------------------------------------------.---
(PID.TID 0000.0001) //     29 --.-----------------------------------------------------------------.---
(PID.TID 0000.0001) //     28 --.-----------------------------------------------------------------.---
(PID.TID 0000.0001) //     33 --.-----------------------------------------------------------------.---
(PID.TID 0000.0001) //     32 --.-----------------------------------------------------------------.---
(PID.TID 0000.0001) //     31 --.-----------------------------------------------------------------.---
(PID.TID 0000.0001) //     30 --.-----------------------------------------------------------------.---
(PID.TID 0000.0001) //     29 --.-----------------------------------------------------------------.---
(PID.TID 0000.0001) //     28 --.-----------------------------------------------------------------.---
(PID.TID 0000.0001) //     27 --.-----------------------------------------------------------------.---
(PID.TID 0000.0001) //     26 --.-----------------------------------------------------------------.---
(PID.TID 0000.0001) //     25 --.-----------------------------------------------------------------.---
(PID.TID 0000.0001) //     24 --.-----------------------------------------------------------------.---
(PID.TID 0000.0001) //     23 --.-----------------------------------------------------------------.---
(PID.TID 0000.0001) //     22 --.-----------------------------------------------------------------.---
(PID.TID 0000.0001) //     21 --.-----------------------------------------------------------------.---
(PID.TID 0000.0001) //     20 --.-----------------------------------------------------------------.---
(PID.TID 0000.0001) //     19 --.-----------------------------------------------------------------.---
(PID.TID 0000.0001) //     18 --.-----------------------------------------------------------------.---
(PID.TID 0000.0001) //     17 --.-----------------------------------------------------------------.---
(PID.TID 0000.0001) //     16 --.-----------------------------------------------------------------.---
(PID.TID 0000.0001) //     15 --.-----------------------------------------------------------------.---
(PID.TID 0000.0001) //     14 --.-----------------------------------------------------------------.---
(PID.TID 0000.0001) //     13 --.-----------------------------------------------------------------.---
(PID.TID 0000.0001) //     12 --.-----------------------------------------------------------------.---
(PID.TID 0000.0001) //     11 --.-----------------------------------------------------------------.---
(PID.TID 0000.0001) //     10 --.-----------------------------------------------------------------.---
(PID.TID 0000.0001) //      9 --.-----------------------------------------------------------------.---
(PID.TID 0000.0001) //      8 --.-----------------------------------------------------------------.---
(PID.TID 0000.0001) //      7 --.-----------------------------------------------------------------.---
(PID.TID 0000.0001) //      6 --.-----------------------------------------------------------------.---
(PID.TID 0000.0001) //      5 --.-----------------------------------------------------------------.---
(PID.TID 0000.0001) //      4 --.-----------------------------------------------------------------.---
(PID.TID 0000.0001) //      3 --.-----------------------------------------------------------------.---
(PID.TID 0000.0001) //      2 --.-----------------------------------------------------------------.---
(PID.TID 0000.0001) //      1 --.-----------------------------------------------------------------.---
(PID.TID 0000.0001) //      0 ........................................................................
(PID.TID 0000.0001) //     -1 --.-----------------------------------------------------------------.---
(PID.TID 0000.0001) //     -2 --.-----------------------------------------------------------------.---
(PID.TID 0000.0001) // =======================================================
(PID.TID 0000.0001) // END OF FIELD                                          =
(PID.TID 0000.0001) // =======================================================
(PID.TID 0000.0001) 
(PID.TID 0000.0001) // =======================================================
(PID.TID 0000.0001) // Field hFacW at iteration          1
(PID.TID 0000.0001) // CMIN =          1.000000000000000E+00
(PID.TID 0000.0001) // CMAX =          1.000000000000000E+00
(PID.TID 0000.0001) // CINT =          0.000000000000000E+00
(PID.TID 0000.0001) // SYMBOLS (CMIN->CMAX): -abcdefghijklmnopqrstuvwxyz+
(PID.TID 0000.0001) //                  0.0: .
(PID.TID 0000.0001) // RANGE I (Lo:Hi:Step):(  -2:  63:   1)
(PID.TID 0000.0001) // RANGE J (Lo:Hi:Step):(  63:  -2:  -1)
(PID.TID 0000.0001) // RANGE K (Lo:Hi:Step):(   1:   1:   1)
(PID.TID 0000.0001) // =======================================================
(PID.TID 0000.0001) K =   1
(PID.TID 0000.0001) //                I=7       I=17      I=27      I=31      I=41      I=51      I=61
(PID.TID 0000.0001) // |--J--|**0123456|890123456|890123456|890123890|234567890|234567890|234567890|23
(PID.TID 0000.0001) //     63 --..----------------------------------------------------------------..--
(PID.TID 0000.0001) //     62 --..----------------------------------------------------------------..--
(PID.TID 0000.0001) //     61 --..----------------------------------------------------------------..--
(PID.TID 0000.0001) //     60 ........................................................................
(PID.TID 0000.0001) //     59 --..----------------------------------------------------------------..--
(PID.TID 0000.0001) //     58 --..----------------------------------------------------------------..--
(PID.TID 0000.0001) //     57 --..----------------------------------------------------------------..--
(PID.TID 0000.0001) //     56 --..----------------------------------------------------------------..--
(PID.TID 0000.0001) //     55 --..----------------------------------------------------------------..--
(PID.TID 0000.0001) //     54 --..----------------------------------------------------------------..--
(PID.TID 0000.0001) //     53 --..----------------------------------------------------------------..--
(PID.TID 0000.0001) //     52 --..----------------------------------------------------------------..--
(PID.TID 0000.0001) //     51 --..----------------------------------------------------------------..--
(PID.TID 0000.0001) //     50 --..----------------------------------------------------------------..--
(PID.TID 0000.0001) //     49 --..----------------------------------------------------------------..--
(PID.TID 0000.0001) //     48 --..----------------------------------------------------------------..--
(PID.TID 0000.0001) //     47 --..----------------------------------------------------------------..--
(PID.TID 0000.0001) //     46 --..----------------------------------------------------------------..--
(PID.TID 0000.0001) //     45 --..----------------------------------------------------------------..--
(PID.TID 0000.0001) //     44 --..----------------------------------------------------------------..--
(PID.TID 0000.0001) //     43 --..----------------------------------------------------------------..--
(PID.TID 0000.0001) //     42 --..----------------------------------------------------------------..--
(PID.TID 0000.0001) //     41 --..----------------------------------------------------------------..--
(PID.TID 0000.0001) //     40 --..----------------------------------------------------------------..--
(PID.TID 0000.0001) //     39 --..----------------------------------------------------------------..--
(PID.TID 0000.0001) //     38 --..----------------------------------------------------------------..--
(PID.TID 0000.0001) //     37 --..----------------------------------------------------------------..--
(PID.TID 0000.0001) //     36 --..----------------------------------------------------------------..--
(PID.TID 0000.0001) //     35 --..----------------------------------------------------------------..--
(PID.TID 0000.0001) //     34 --..----------------------------------------------------------------..--
(PID.TID 0000.0001) //     33 --..----------------------------------------------------------------..--
(PID.TID 0000.0001) //     32 --..----------------------------------------------------------------..--
(PID.TID 0000.0001) //     31 --..----------------------------------------------------------------..--
(PID.TID 0000.0001) //     30 --..----------------------------------------------------------------..--
(PID.TID 0000.0001) //     29 --..----------------------------------------------------------------..--
(PID.TID 0000.0001) //     28 --..----------------------------------------------------------------..--
(PID.TID 0000.0001) //     33 --..----------------------------------------------------------------..--
(PID.TID 0000.0001) //     32 --..----------------------------------------------------------------..--
(PID.TID 0000.0001) //     31 --..----------------------------------------------------------------..--
(PID.TID 0000.0001) //     30 --..----------------------------------------------------------------..--
(PID.TID 0000.0001) //     29 --..----------------------------------------------------------------..--
(PID.TID 0000.0001) //     28 --..----------------------------------------------------------------..--
(PID.TID 0000.0001) //     27 --..----------------------------------------------------------------..--
(PID.TID 0000.0001) //     26 --..----------------------------------------------------------------..--
(PID.TID 0000.0001) //     25 --..----------------------------------------------------------------..--
(PID.TID 0000.0001) //     24 --..----------------------------------------------------------------..--
(PID.TID 0000.0001) //     23 --..----------------------------------------------------------------..--
(PID.TID 0000.0001) //     22 --..----------------------------------------------------------------..--
(PID.TID 0000.0001) //     21 --..----------------------------------------------------------------..--
(PID.TID 0000.0001) //     20 --..----------------------------------------------------------------..--
(PID.TID 0000.0001) //     19 --..----------------------------------------------------------------..--
(PID.TID 0000.0001) //     18 --..----------------------------------------------------------------..--
(PID.TID 0000.0001) //     17 --..----------------------------------------------------------------..--
(PID.TID 0000.0001) //     16 --..----------------------------------------------------------------..--
(PID.TID 0000.0001) //     15 --..----------------------------------------------------------------..--
(PID.TID 0000.0001) //     14 --..----------------------------------------------------------------..--
(PID.TID 0000.0001) //     13 --..----------------------------------------------------------------..--
(PID.TID 0000.0001) //     12 --..----------------------------------------------------------------..--
(PID.TID 0000.0001) //     11 --..----------------------------------------------------------------..--
(PID.TID 0000.0001) //     10 --..----------------------------------------------------------------..--
(PID.TID 0000.0001) //      9 --..----------------------------------------------------------------..--
(PID.TID 0000.0001) //      8 --..----------------------------------------------------------------..--
(PID.TID 0000.0001) //      7 --..----------------------------------------------------------------..--
(PID.TID 0000.0001) //      6 --..----------------------------------------------------------------..--
(PID.TID 0000.0001) //      5 --..----------------------------------------------------------------..--
(PID.TID 0000.0001) //      4 --..----------------------------------------------------------------..--
(PID.TID 0000.0001) //      3 --..----------------------------------------------------------------..--
(PID.TID 0000.0001) //      2 --..----------------------------------------------------------------..--
(PID.TID 0000.0001) //      1 --..----------------------------------------------------------------..--
(PID.TID 0000.0001) //      0 ........................................................................
(PID.TID 0000.0001) //     -1 --..----------------------------------------------------------------..--
(PID.TID 0000.0001) //     -2 --..----------------------------------------------------------------..--
(PID.TID 0000.0001) // =======================================================
(PID.TID 0000.0001) // END OF FIELD                                          =
(PID.TID 0000.0001) // =======================================================
(PID.TID 0000.0001) 
(PID.TID 0000.0001) // =======================================================
(PID.TID 0000.0001) // Field hFacS at iteration          1
(PID.TID 0000.0001) // CMIN =          1.000000000000000E+00
(PID.TID 0000.0001) // CMAX =          1.000000000000000E+00
(PID.TID 0000.0001) // CINT =          0.000000000000000E+00
(PID.TID 0000.0001) // SYMBOLS (CMIN->CMAX): -abcdefghijklmnopqrstuvwxyz+
(PID.TID 0000.0001) //                  0.0: .
(PID.TID 0000.0001) // RANGE I (Lo:Hi:Step):(  -2:  63:   1)
(PID.TID 0000.0001) // RANGE J (Lo:Hi:Step):(  63:  -2:  -1)
(PID.TID 0000.0001) // RANGE K (Lo:Hi:Step):(   1:   1:   1)
(PID.TID 0000.0001) // =======================================================
(PID.TID 0000.0001) K =   1
(PID.TID 0000.0001) //                I=7       I=17      I=27      I=31      I=41      I=51      I=61
(PID.TID 0000.0001) // |--J--|**0123456|890123456|890123456|890123890|234567890|234567890|234567890|23
(PID.TID 0000.0001) //     63 --.-----------------------------------------------------------------.---
(PID.TID 0000.0001) //     62 --.-----------------------------------------------------------------.---
(PID.TID 0000.0001) //     61 ........................................................................
(PID.TID 0000.0001) //     60 ........................................................................
(PID.TID 0000.0001) //     59 --.-----------------------------------------------------------------.---
(PID.TID 0000.0001) //     58 --.-----------------------------------------------------------------.---
(PID.TID 0000.0001) //     57 --.-----------------------------------------------------------------.---
(PID.TID 0000.0001) //     56 --.-----------------------------------------------------------------.---
(PID.TID 0000.0001) //     55 --.-----------------------------------------------------------------.---
(PID.TID 0000.0001) //     54 --.-----------------------------------------------------------------.---
(PID.TID 0000.0001) //     53 --.-----------------------------------------------------------------.---
(PID.TID 0000.0001) //     52 --.-----------------------------------------------------------------.---
(PID.TID 0000.0001) //     51 --.-----------------------------------------------------------------.---
(PID.TID 0000.0001) //     50 --.-----------------------------------------------------------------.---
(PID.TID 0000.0001) //     49 --.-----------------------------------------------------------------.---
(PID.TID 0000.0001) //     48 --.-----------------------------------------------------------------.---
(PID.TID 0000.0001) //     47 --.-----------------------------------------------------------------.---
(PID.TID 0000.0001) //     46 --.-----------------------------------------------------------------.---
(PID.TID 0000.0001) //     45 --.-----------------------------------------------------------------.---
(PID.TID 0000.0001) //     44 --.-----------------------------------------------------------------.---
(PID.TID 0000.0001) //     43 --.-----------------------------------------------------------------.---
(PID.TID 0000.0001) //     42 --.-----------------------------------------------------------------.---
(PID.TID 0000.0001) //     41 --.-----------------------------------------------------------------.---
(PID.TID 0000.0001) //     40 --.-----------------------------------------------------------------.---
(PID.TID 0000.0001) //     39 --.-----------------------------------------------------------------.---
(PID.TID 0000.0001) //     38 --.-----------------------------------------------------------------.---
(PID.TID 0000.0001) //     37 --.-----------------------------------------------------------------.---
(PID.TID 0000.0001) //     36 --.-----------------------------------------------------------------.---
(PID.TID 0000.0001) //     35 --.-----------------------------------------------------------------.---
(PID.TID 0000.0001) //     34 --.-----------------------------------------------------------------.---
(PID.TID 0000.0001) //     33 --.-----------------------------------------------------------------.---
(PID.TID 0000.0001) //     32 --.-----------------------------------------------------------------.---
(PID.TID 0000.0001) //     31 --.-----------------------------------------------------------------.---
(PID.TID 0000.0001) //     30 --.-----------------------------------------------------------------.---
(PID.TID 0000.0001) //     29 --.-----------------------------------------------------------------.---
(PID.TID 0000.0001) //     28 --.-----------------------------------------------------------------.---
(PID.TID 0000.0001) //     33 --.-----------------------------------------------------------------.---
(PID.TID 0000.0001) //     32 --.-----------------------------------------------------------------.---
(PID.TID 0000.0001) //     31 --.-----------------------------------------------------------------.---
(PID.TID 0000.0001) //     30 --.-----------------------------------------------------------------.---
(PID.TID 0000.0001) //     29 --.-----------------------------------------------------------------.---
(PID.TID 0000.0001) //     28 --.-----------------------------------------------------------------.---
(PID.TID 0000.0001) //     27 --.-----------------------------------------------------------------.---
(PID.TID 0000.0001) //     26 --.-----------------------------------------------------------------.---
(PID.TID 0000.0001) //     25 --.-----------------------------------------------------------------.---
(PID.TID 0000.0001) //     24 --.-----------------------------------------------------------------.---
(PID.TID 0000.0001) //     23 --.-----------------------------------------------------------------.---
(PID.TID 0000.0001) //     22 --.-----------------------------------------------------------------.---
(PID.TID 0000.0001) //     21 --.-----------------------------------------------------------------.---
(PID.TID 0000.0001) //     20 --.-----------------------------------------------------------------.---
(PID.TID 0000.0001) //     19 --.-----------------------------------------------------------------.---
(PID.TID 0000.0001) //     18 --.-----------------------------------------------------------------.---
(PID.TID 0000.0001) //     17 --.-----------------------------------------------------------------.---
(PID.TID 0000.0001) //     16 --.-----------------------------------------------------------------.---
(PID.TID 0000.0001) //     15 --.-----------------------------------------------------------------.---
(PID.TID 0000.0001) //     14 --.-----------------------------------------------------------------.---
(PID.TID 0000.0001) //     13 --.-----------------------------------------------------------------.---
(PID.TID 0000.0001) //     12 --.-----------------------------------------------------------------.---
(PID.TID 0000.0001) //     11 --.-----------------------------------------------------------------.---
(PID.TID 0000.0001) //     10 --.-----------------------------------------------------------------.---
(PID.TID 0000.0001) //      9 --.-----------------------------------------------------------------.---
(PID.TID 0000.0001) //      8 --.-----------------------------------------------------------------.---
(PID.TID 0000.0001) //      7 --.-----------------------------------------------------------------.---
(PID.TID 0000.0001) //      6 --.-----------------------------------------------------------------.---
(PID.TID 0000.0001) //      5 --.-----------------------------------------------------------------.---
(PID.TID 0000.0001) //      4 --.-----------------------------------------------------------------.---
(PID.TID 0000.0001) //      3 --.-----------------------------------------------------------------.---
(PID.TID 0000.0001) //      2 --.-----------------------------------------------------------------.---
(PID.TID 0000.0001) //      1 ........................................................................
(PID.TID 0000.0001) //      0 ........................................................................
(PID.TID 0000.0001) //     -1 --.-----------------------------------------------------------------.---
(PID.TID 0000.0001) //     -2 --.-----------------------------------------------------------------.---
(PID.TID 0000.0001) // =======================================================
(PID.TID 0000.0001) // END OF FIELD                                          =
(PID.TID 0000.0001) // =======================================================
(PID.TID 0000.0001) 
(PID.TID 0000.0001) %MON fCori_max                    =   7.1620103651647E-05
(PID.TID 0000.0001) %MON fCori_min                    =  -7.1620103651647E-05
(PID.TID 0000.0001) %MON fCori_mean                   =   1.3552527156069E-22
(PID.TID 0000.0001) %MON fCori_sd                     =   4.2772026192958E-05
(PID.TID 0000.0001) %MON fCoriG_max                   =   7.0512700988683E-05
(PID.TID 0000.0001) %MON fCoriG_min                   =  -7.2722052166430E-05
(PID.TID 0000.0001) %MON fCoriG_mean                  =  -1.2325771553632E-06
(PID.TID 0000.0001) %MON fCoriG_sd                    =   4.3131072516752E-05
(PID.TID 0000.0001)  PACKAGES_BOOT: opening data.pkg
(PID.TID 0000.0001)  OPEN_COPY_DATA_FILE: opening file data.pkg
(PID.TID 0000.0001) // =======================================================
(PID.TID 0000.0001) // Parameter file "data.pkg"
(PID.TID 0000.0001) // =======================================================
(PID.TID 0000.0001) ># Packages
(PID.TID 0000.0001) > &PACKAGES
(PID.TID 0000.0001) > &
(PID.TID 0000.0001) 
(PID.TID 0000.0001)  PACKAGES_BOOT: finished reading data.pkg
(PID.TID 0000.0001) // CG2D normalisation factor =          0.4351778479699497620240833E-03
(PID.TID 0000.0001) 
(PID.TID 0000.0001) // =======================================================
(PID.TID 0000.0001) // Model configuration
(PID.TID 0000.0001) // =======================================================
(PID.TID 0000.0001) //
(PID.TID 0000.0001) // "Physical" paramters ( PARM01 in namelist )
(PID.TID 0000.0001) //
(PID.TID 0000.0001) tRef =   /* Reference temperature profile ( oC or oK ) */
(PID.TID 0000.0001)                 2.000000000000000E+01,      /* K =  1 */
(PID.TID 0000.0001)                 1.000000000000000E+01,      /* K =  2 */
(PID.TID 0000.0001)                 8.000000000000000E+00,      /* K =  3 */
(PID.TID 0000.0001)                 6.000000000000000E+00       /* K =  4 */
(PID.TID 0000.0001)     ;
(PID.TID 0000.0001) sRef =   /* Reference salinity profile ( ppt ) */
(PID.TID 0000.0001)     4 @  1.000000000000000E+01              /* K =  1:  4 */
(PID.TID 0000.0001)     ;
(PID.TID 0000.0001) viscAh =   /* Lateral eddy viscosity ( m^2/s ) */
(PID.TID 0000.0001)                 4.000000000000000E+02
(PID.TID 0000.0001)     ;
(PID.TID 0000.0001) viscAh =   /* Lateral biharmonic viscosity ( m^4/s ) */
(PID.TID 0000.0001)                 0.000000000000000E+00
(PID.TID 0000.0001)     ;
(PID.TID 0000.0001) no_slip_sides =  /* Viscous BCs: No-slip sides */
(PID.TID 0000.0001)                   F
(PID.TID 0000.0001)     ;
(PID.TID 0000.0001) viscAz =   /* Vertical eddy viscosity ( m^2/s ) */
(PID.TID 0000.0001)                 1.000000000000000E-02
(PID.TID 0000.0001)     ;
(PID.TID 0000.0001) viscAr =   /* Vertical eddy viscosity ( units of r^2/s ) */
(PID.TID 0000.0001)                 1.000000000000000E-02
(PID.TID 0000.0001)     ;
(PID.TID 0000.0001) diffKhT =   /* Laplacian diffusion of heat laterally ( m^2/s ) */
(PID.TID 0000.0001)                 4.000000000000000E+02
(PID.TID 0000.0001)     ;
(PID.TID 0000.0001) diffK4T =   /* Bihaarmonic diffusion of heat laterally ( m^4/s ) */
(PID.TID 0000.0001)                 0.000000000000000E+00
(PID.TID 0000.0001)     ;
(PID.TID 0000.0001) diffKzT =   /* Laplacian diffusion of heat vertically ( m^2/s ) */
(PID.TID 0000.0001)                 1.000000000000000E-02
(PID.TID 0000.0001)     ;
(PID.TID 0000.0001) diffKrT =   /* Laplacian diffusion of heat vertically ( m^2/s ) */
(PID.TID 0000.0001)                 1.000000000000000E-02
(PID.TID 0000.0001)     ;
(PID.TID 0000.0001) diffKhS =   /* Laplacian diffusion of salt laterally ( m^2/s ) */
(PID.TID 0000.0001)                 0.000000000000000E+00
(PID.TID 0000.0001)     ;
(PID.TID 0000.0001) diffK4S =   /* Bihaarmonic diffusion of salt laterally ( m^4/s ) */
(PID.TID 0000.0001)                 0.000000000000000E+00
(PID.TID 0000.0001)     ;
(PID.TID 0000.0001) diffKzS =   /* Laplacian diffusion of salt vertically ( m^2/s ) */
(PID.TID 0000.0001)                 1.234567000000000E+05
(PID.TID 0000.0001)     ;
(PID.TID 0000.0001) diffKrS =   /* Laplacian diffusion of salt vertically ( m^2/s ) */
(PID.TID 0000.0001)                 0.000000000000000E+00
(PID.TID 0000.0001)     ;
(PID.TID 0000.0001) tAlpha =   /* Linear EOS thermal expansion coefficient ( 1/degree ) */
(PID.TID 0000.0001)                 2.000000000000000E-04
(PID.TID 0000.0001)     ;
(PID.TID 0000.0001) sBeta =   /* Linear EOS haline contraction coefficient ( 1/ppt ) */
(PID.TID 0000.0001)                 0.000000000000000E+00
(PID.TID 0000.0001)     ;
(PID.TID 0000.0001) rhonil =   /* Reference density ( kg/m^3 ) */
(PID.TID 0000.0001)                 9.998000000000000E+02
(PID.TID 0000.0001)     ;
(PID.TID 0000.0001) rhoConst =   /* Reference density ( kg/m^3 ) */
(PID.TID 0000.0001)                 9.998000000000000E+02
(PID.TID 0000.0001)     ;
(PID.TID 0000.0001) gravity =   /* Gravitational acceleration ( m/s^2 ) */
(PID.TID 0000.0001)                 9.810000000000000E+00
(PID.TID 0000.0001)     ;
(PID.TID 0000.0001) gBaro =   /* Barotropic gravity ( m/s^2 ) */
(PID.TID 0000.0001)                 9.810000000000000E+00
(PID.TID 0000.0001)     ;
(PID.TID 0000.0001) f0 =   /* Reference coriolis parameter ( 1/s ) */
(PID.TID 0000.0001)                 1.000000000000000E-04
(PID.TID 0000.0001)     ;
(PID.TID 0000.0001) beta =   /* Beta ( 1/(m.s) ) */
(PID.TID 0000.0001)                 9.999999999999999E-12
(PID.TID 0000.0001)     ;
(PID.TID 0000.0001) freeSurfFac =   /* Implicit free surface factor */
(PID.TID 0000.0001)                 1.000000000000000E+00
(PID.TID 0000.0001)     ;
(PID.TID 0000.0001) implicitFreeSurface =   /* Implicit free surface on/off flag */
(PID.TID 0000.0001)                   T
(PID.TID 0000.0001)     ;
(PID.TID 0000.0001) rigidLid =   /* Rigid lid on/off flag */
(PID.TID 0000.0001)                   F
(PID.TID 0000.0001)     ;
(PID.TID 0000.0001) implicSurfPress =   /* Surface Pressure implicit factor (0-1)*/
(PID.TID 0000.0001)                 1.000000000000000E+00
(PID.TID 0000.0001)     ;
(PID.TID 0000.0001) implicDiv2Dflow =   /* Barot. Flow Div. implicit factor (0-1)*/
(PID.TID 0000.0001)                 1.000000000000000E+00
(PID.TID 0000.0001)     ;
(PID.TID 0000.0001) staggerTimeStep =   /* Stagger time stepping on/off flag */
(PID.TID 0000.0001)                   F
(PID.TID 0000.0001)     ;
(PID.TID 0000.0001) momStepping =  /* Momentum equation on/off flag */
(PID.TID 0000.0001)                   T
(PID.TID 0000.0001)     ;
(PID.TID 0000.0001) momAdvection =  /* Momentum advection on/off flag */
(PID.TID 0000.0001)                   T
(PID.TID 0000.0001)     ;
(PID.TID 0000.0001) momViscosity =  /* Momentum viscosity on/off flag */
(PID.TID 0000.0001)                   T
(PID.TID 0000.0001)     ;
(PID.TID 0000.0001) useCoriolis =  /* Coriolis on/off flag */
(PID.TID 0000.0001)                   T
(PID.TID 0000.0001)     ;
(PID.TID 0000.0001) momForcing =  /* Momentum forcing on/off flag */
(PID.TID 0000.0001)                   T
(PID.TID 0000.0001)     ;
(PID.TID 0000.0001) momPressureForcing =  /* Momentum pressure term on/off flag */
(PID.TID 0000.0001)                   T
(PID.TID 0000.0001)     ;
(PID.TID 0000.0001) tempStepping =  /* Temperature equation on/off flag */
(PID.TID 0000.0001)                   T
(PID.TID 0000.0001)     ;
(PID.TID 0000.0001) nonHydrostatic =  /* Non-Hydrostatic on/off flag */
(PID.TID 0000.0001)                   F
(PID.TID 0000.0001)     ;
(PID.TID 0000.0001) //
(PID.TID 0000.0001) // Elliptic solver(s) paramters ( PARM02 in namelist )
(PID.TID 0000.0001) //
(PID.TID 0000.0001) cg2dMaxIters =   /* Upper limit on 2d con. grad iterations  */
(PID.TID 0000.0001)                    1000
(PID.TID 0000.0001)     ;
(PID.TID 0000.0001) cg2dChkResFreq =   /* 2d con. grad convergence test frequency */
(PID.TID 0000.0001)                       1
(PID.TID 0000.0001)     ;
(PID.TID 0000.0001) cg2dTargetResidual =   /* 2d con. grad target residual  */
(PID.TID 0000.0001)                 1.000000000000000E-13
(PID.TID 0000.0001)     ;
(PID.TID 0000.0001) //
(PID.TID 0000.0001) // Time stepping paramters ( PARM03 in namelist )
(PID.TID 0000.0001) //
(PID.TID 0000.0001) nIter0 =   /* Base timestep number  */
(PID.TID 0000.0001)                       0
(PID.TID 0000.0001)     ;
(PID.TID 0000.0001) nTimeSteps =   /* Number of timesteps */
(PID.TID 0000.0001)                      10
(PID.TID 0000.0001)     ;
(PID.TID 0000.0001) deltatTmom =   /* Momentum equation timestep ( s ) */
(PID.TID 0000.0001)                 1.200000000000000E+03
(PID.TID 0000.0001)     ;
(PID.TID 0000.0001) deltatTtracer =   /* Tracer equation timestep ( s ) */
(PID.TID 0000.0001)                 1.200000000000000E+03
(PID.TID 0000.0001)     ;
(PID.TID 0000.0001) deltatTClock  =   /* Model clock timestep ( s ) */
(PID.TID 0000.0001)                 1.200000000000000E+03
(PID.TID 0000.0001)     ;
(PID.TID 0000.0001) cAdjFreq =   /* Convective adjustment interval ( s ) */
(PID.TID 0000.0001)                 0.000000000000000E+00
(PID.TID 0000.0001)     ;
(PID.TID 0000.0001) abeps =   /* Adams-Bashforth stabilizing weight */
(PID.TID 0000.0001)                 1.000000000000000E-01
(PID.TID 0000.0001)     ;
(PID.TID 0000.0001) tauCD =   /* CD coupling time-scale ( s ) */
(PID.TID 0000.0001)                 1.200000000000000E+03
(PID.TID 0000.0001)     ;
(PID.TID 0000.0001) rCD =   /* Normalised CD coupling parameter */
(PID.TID 0000.0001)                 0.000000000000000E+00
(PID.TID 0000.0001)     ;
(PID.TID 0000.0001) startTime =   /* Run start time ( s ). */
(PID.TID 0000.0001)                 0.000000000000000E+00
(PID.TID 0000.0001)     ;
(PID.TID 0000.0001) endTime =   /* Integration ending time ( s ). */
(PID.TID 0000.0001)                 1.200000000000000E+04
(PID.TID 0000.0001)     ;
(PID.TID 0000.0001) pChkPtFreq =   /* Permanent restart/checkpoint file interval ( s ). */
(PID.TID 0000.0001)                 1.700000000000000E+04
(PID.TID 0000.0001)     ;
(PID.TID 0000.0001) chkPtFreq =   /* Rolling restart/checkpoint file interval ( s ). */
(PID.TID 0000.0001)                 0.000000000000000E+00
(PID.TID 0000.0001)     ;
(PID.TID 0000.0001) dumpFreq =   /* Model state write out interval ( s ). */
(PID.TID 0000.0001)                 2.592000000000000E+06
(PID.TID 0000.0001)     ;
(PID.TID 0000.0001) //
(PID.TID 0000.0001) // Gridding paramters ( PARM04 in namelist )
(PID.TID 0000.0001) //
(PID.TID 0000.0001) usingCartesianGrid =   /* Cartesian coordinates flag ( True / False ) */
(PID.TID 0000.0001)                   F
(PID.TID 0000.0001)     ;
(PID.TID 0000.0001) usingSphericalPolarGrid =   /* Spherical coordinates flag ( True / False ) */
(PID.TID 0000.0001)                   T
(PID.TID 0000.0001)     ;
(PID.TID 0000.0001) groundAtK1 =   /* Lower Boundary (ground) at the surface(k=1) ( T / F ) */
(PID.TID 0000.0001)                   F
(PID.TID 0000.0001)     ;
(PID.TID 0000.0001) Ro_SeaLevel =   /* r(1) ( units of r ) */
(PID.TID 0000.0001)                 0.000000000000000E+00
(PID.TID 0000.0001)     ;
(PID.TID 0000.0001) rkFac =   /* minus Vertical index orientation  */
(PID.TID 0000.0001)                 1.000000000000000E+00
(PID.TID 0000.0001)     ;
(PID.TID 0000.0001) horiVertRatio =   /* Ratio on units : Horiz - Vertical */
(PID.TID 0000.0001)                 1.000000000000000E+00
(PID.TID 0000.0001)     ;
(PID.TID 0000.0001) delZ =   /* W spacing ( m ) */
(PID.TID 0000.0001)     4 @  5.000000000000000E+02              /* K =  1:  4 */
(PID.TID 0000.0001)     ;
(PID.TID 0000.0001) delP =   /* W spacing ( Pa ) */
(PID.TID 0000.0001)     4 @  1.234567000000000E+05              /* K =  1:  4 */
(PID.TID 0000.0001)     ;
(PID.TID 0000.0001) delR =   /* W spacing ( units of r ) */
(PID.TID 0000.0001)     4 @  5.000000000000000E+02              /* K =  1:  4 */
(PID.TID 0000.0001)     ;
(PID.TID 0000.0001) delX =   /* U spacing ( m - cartesian, degrees - spherical ) */
(PID.TID 0000.0001)    60 @  1.000000000000000E+00              /* I =  1: 60 */
(PID.TID 0000.0001)     ;
(PID.TID 0000.0001) delY =   /* V spacing ( m - cartesian, degrees - spherical ) */
(PID.TID 0000.0001)    60 @  1.000000000000000E+00              /* J =  1: 60 */
(PID.TID 0000.0001)     ;
(PID.TID 0000.0001) phiMin =    /* South edge (ignored - cartesian, degrees - spherical ) */
(PID.TID 0000.0001)                -3.000000000000000E+01
(PID.TID 0000.0001)     ;
(PID.TID 0000.0001) thetaMin =    /* West edge ( ignored - cartesian, degrees - spherical ) */
(PID.TID 0000.0001)                 0.000000000000000E+00
(PID.TID 0000.0001)     ;
(PID.TID 0000.0001) rSphere =    /* Radius ( ignored - cartesian, m - spherical ) */
(PID.TID 0000.0001)                 6.370000000000000E+06
(PID.TID 0000.0001)     ;
(PID.TID 0000.0001) xcoord =   /* P-point X coord ( m - cartesian, degrees - spherical ) */
(PID.TID 0000.0001)                 5.000000000000000E-01,      /* I =  1 */
(PID.TID 0000.0001)                 1.500000000000000E+00,      /* I =  2 */
(PID.TID 0000.0001)                 2.500000000000000E+00,      /* I =  3 */
(PID.TID 0000.0001)                 3.500000000000000E+00,      /* I =  4 */
(PID.TID 0000.0001)                 4.500000000000000E+00,      /* I =  5 */
(PID.TID 0000.0001)                 5.500000000000000E+00,      /* I =  6 */
(PID.TID 0000.0001)                 6.500000000000000E+00,      /* I =  7 */
(PID.TID 0000.0001)                 7.500000000000000E+00,      /* I =  8 */
(PID.TID 0000.0001)                 8.500000000000000E+00,      /* I =  9 */
(PID.TID 0000.0001)                 9.500000000000000E+00,      /* I = 10 */
(PID.TID 0000.0001)                 1.050000000000000E+01,      /* I = 11 */
(PID.TID 0000.0001)                 1.150000000000000E+01,      /* I = 12 */
(PID.TID 0000.0001)                 1.250000000000000E+01,      /* I = 13 */
(PID.TID 0000.0001)                 1.350000000000000E+01,      /* I = 14 */
(PID.TID 0000.0001)                 1.450000000000000E+01,      /* I = 15 */
(PID.TID 0000.0001)                 1.550000000000000E+01,      /* I = 16 */
(PID.TID 0000.0001)                 1.650000000000000E+01,      /* I = 17 */
(PID.TID 0000.0001)                 1.750000000000000E+01,      /* I = 18 */
(PID.TID 0000.0001)                 1.850000000000000E+01,      /* I = 19 */
(PID.TID 0000.0001)                 1.950000000000000E+01,      /* I = 20 */
(PID.TID 0000.0001)                 2.050000000000000E+01,      /* I = 21 */
(PID.TID 0000.0001)                 2.150000000000000E+01,      /* I = 22 */
(PID.TID 0000.0001)                 2.250000000000000E+01,      /* I = 23 */
(PID.TID 0000.0001)                 2.350000000000000E+01,      /* I = 24 */
(PID.TID 0000.0001)                 2.450000000000000E+01,      /* I = 25 */
(PID.TID 0000.0001)                 2.550000000000000E+01,      /* I = 26 */
(PID.TID 0000.0001)                 2.650000000000000E+01,      /* I = 27 */
(PID.TID 0000.0001)                 2.750000000000000E+01,      /* I = 28 */
(PID.TID 0000.0001)                 2.850000000000000E+01,      /* I = 29 */
(PID.TID 0000.0001)                 2.950000000000000E+01,      /* I = 30 */
(PID.TID 0000.0001)                 3.050000000000000E+01,      /* I = 31 */
(PID.TID 0000.0001)                 3.150000000000000E+01,      /* I = 32 */
(PID.TID 0000.0001)                 3.250000000000000E+01,      /* I = 33 */
(PID.TID 0000.0001)                 3.350000000000000E+01,      /* I = 34 */
(PID.TID 0000.0001)                 3.450000000000000E+01,      /* I = 35 */
(PID.TID 0000.0001)                 3.550000000000000E+01,      /* I = 36 */
(PID.TID 0000.0001)                 3.650000000000000E+01,      /* I = 37 */
(PID.TID 0000.0001)                 3.750000000000000E+01,      /* I = 38 */
(PID.TID 0000.0001)                 3.850000000000000E+01,      /* I = 39 */
(PID.TID 0000.0001)                 3.950000000000000E+01,      /* I = 40 */
(PID.TID 0000.0001)                 4.050000000000000E+01,      /* I = 41 */
(PID.TID 0000.0001)                 4.150000000000000E+01,      /* I = 42 */
(PID.TID 0000.0001)                 4.250000000000000E+01,      /* I = 43 */
(PID.TID 0000.0001)                 4.350000000000000E+01,      /* I = 44 */
(PID.TID 0000.0001)                 4.450000000000000E+01,      /* I = 45 */
(PID.TID 0000.0001)                 4.550000000000000E+01,      /* I = 46 */
(PID.TID 0000.0001)                 4.650000000000000E+01,      /* I = 47 */
(PID.TID 0000.0001)                 4.750000000000000E+01,      /* I = 48 */
(PID.TID 0000.0001)                 4.850000000000000E+01,      /* I = 49 */
(PID.TID 0000.0001)                 4.950000000000000E+01,      /* I = 50 */
(PID.TID 0000.0001)                 5.050000000000000E+01,      /* I = 51 */
(PID.TID 0000.0001)                 5.150000000000000E+01,      /* I = 52 */
(PID.TID 0000.0001)                 5.250000000000000E+01,      /* I = 53 */
(PID.TID 0000.0001)                 5.350000000000000E+01,      /* I = 54 */
(PID.TID 0000.0001)                 5.450000000000000E+01,      /* I = 55 */
(PID.TID 0000.0001)                 5.550000000000000E+01,      /* I = 56 */
(PID.TID 0000.0001)                 5.650000000000000E+01,      /* I = 57 */
(PID.TID 0000.0001)                 5.750000000000000E+01,      /* I = 58 */
(PID.TID 0000.0001)                 5.850000000000000E+01,      /* I = 59 */
(PID.TID 0000.0001)                 5.950000000000000E+01       /* I = 60 */
(PID.TID 0000.0001)     ;
(PID.TID 0000.0001) ycoord =   /* P-point Y coord ( m - cartesian, degrees - spherical ) */
(PID.TID 0000.0001)                -2.950000000000000E+01,      /* J =  1 */
(PID.TID 0000.0001)                -2.850000000000000E+01,      /* J =  2 */
(PID.TID 0000.0001)                -2.750000000000000E+01,      /* J =  3 */
(PID.TID 0000.0001)                -2.650000000000000E+01,      /* J =  4 */
(PID.TID 0000.0001)                -2.550000000000000E+01,      /* J =  5 */
(PID.TID 0000.0001)                -2.450000000000000E+01,      /* J =  6 */
(PID.TID 0000.0001)                -2.350000000000000E+01,      /* J =  7 */
(PID.TID 0000.0001)                -2.250000000000000E+01,      /* J =  8 */
(PID.TID 0000.0001)                -2.150000000000000E+01,      /* J =  9 */
(PID.TID 0000.0001)                -2.050000000000000E+01,      /* J = 10 */
(PID.TID 0000.0001)                -1.950000000000000E+01,      /* J = 11 */
(PID.TID 0000.0001)                -1.850000000000000E+01,      /* J = 12 */
(PID.TID 0000.0001)                -1.750000000000000E+01,      /* J = 13 */
(PID.TID 0000.0001)                -1.650000000000000E+01,      /* J = 14 */
(PID.TID 0000.0001)                -1.550000000000000E+01,      /* J = 15 */
(PID.TID 0000.0001)                -1.450000000000000E+01,      /* J = 16 */
(PID.TID 0000.0001)                -1.350000000000000E+01,      /* J = 17 */
(PID.TID 0000.0001)                -1.250000000000000E+01,      /* J = 18 */
(PID.TID 0000.0001)                -1.150000000000000E+01,      /* J = 19 */
(PID.TID 0000.0001)                -1.050000000000000E+01,      /* J = 20 */
(PID.TID 0000.0001)                -9.500000000000000E+00,      /* J = 21 */
(PID.TID 0000.0001)                -8.500000000000000E+00,      /* J = 22 */
(PID.TID 0000.0001)                -7.500000000000000E+00,      /* J = 23 */
(PID.TID 0000.0001)                -6.500000000000000E+00,      /* J = 24 */
(PID.TID 0000.0001)                -5.500000000000000E+00,      /* J = 25 */
(PID.TID 0000.0001)                -4.500000000000000E+00,      /* J = 26 */
(PID.TID 0000.0001)                -3.500000000000000E+00,      /* J = 27 */
(PID.TID 0000.0001)                -2.500000000000000E+00,      /* J = 28 */
(PID.TID 0000.0001)                -1.500000000000000E+00,      /* J = 29 */
(PID.TID 0000.0001)                -5.000000000000000E-01,      /* J = 30 */
(PID.TID 0000.0001)                 5.000000000000000E-01,      /* J = 31 */
(PID.TID 0000.0001)                 1.500000000000000E+00,      /* J = 32 */
(PID.TID 0000.0001)                 2.500000000000000E+00,      /* J = 33 */
(PID.TID 0000.0001)                 3.500000000000000E+00,      /* J = 34 */
(PID.TID 0000.0001)                 4.500000000000000E+00,      /* J = 35 */
(PID.TID 0000.0001)                 5.500000000000000E+00,      /* J = 36 */
(PID.TID 0000.0001)                 6.500000000000000E+00,      /* J = 37 */
(PID.TID 0000.0001)                 7.500000000000000E+00,      /* J = 38 */
(PID.TID 0000.0001)                 8.500000000000000E+00,      /* J = 39 */
(PID.TID 0000.0001)                 9.500000000000000E+00,      /* J = 40 */
(PID.TID 0000.0001)                 1.050000000000000E+01,      /* J = 41 */
(PID.TID 0000.0001)                 1.150000000000000E+01,      /* J = 42 */
(PID.TID 0000.0001)                 1.250000000000000E+01,      /* J = 43 */
(PID.TID 0000.0001)                 1.350000000000000E+01,      /* J = 44 */
(PID.TID 0000.0001)                 1.450000000000000E+01,      /* J = 45 */
(PID.TID 0000.0001)                 1.550000000000000E+01,      /* J = 46 */
(PID.TID 0000.0001)                 1.650000000000000E+01,      /* J = 47 */
(PID.TID 0000.0001)                 1.750000000000000E+01,      /* J = 48 */
(PID.TID 0000.0001)                 1.850000000000000E+01,      /* J = 49 */
(PID.TID 0000.0001)                 1.950000000000000E+01,      /* J = 50 */
(PID.TID 0000.0001)                 2.050000000000000E+01,      /* J = 51 */
(PID.TID 0000.0001)                 2.150000000000000E+01,      /* J = 52 */
(PID.TID 0000.0001)                 2.250000000000000E+01,      /* J = 53 */
(PID.TID 0000.0001)                 2.350000000000000E+01,      /* J = 54 */
(PID.TID 0000.0001)                 2.450000000000000E+01,      /* J = 55 */
(PID.TID 0000.0001)                 2.550000000000000E+01,      /* J = 56 */
(PID.TID 0000.0001)                 2.650000000000000E+01,      /* J = 57 */
(PID.TID 0000.0001)                 2.750000000000000E+01,      /* J = 58 */
(PID.TID 0000.0001)                 2.850000000000000E+01,      /* J = 59 */
(PID.TID 0000.0001)                 2.950000000000000E+01       /* J = 60 */
(PID.TID 0000.0001)     ;
(PID.TID 0000.0001) rcoord =   /* P-point R coordinate (  units of r ) */
(PID.TID 0000.0001)                -2.500000000000000E+02,      /* K =  1 */
(PID.TID 0000.0001)                -7.500000000000000E+02,      /* K =  2 */
(PID.TID 0000.0001)                -1.250000000000000E+03,      /* K =  3 */
(PID.TID 0000.0001)                -1.750000000000000E+03       /* K =  4 */
(PID.TID 0000.0001)     ;
(PID.TID 0000.0001) dxF =  /* dxF(:,1,:,1) ( m - cartesian, degrees - spherical ) */
(PID.TID 0000.0001)    60 @  9.676394719215337E+04              /* I =  1: 60 */
(PID.TID 0000.0001)     ;
(PID.TID 0000.0001) dxF =  /* dxF(1,:,1,:) ( m - cartesian, degrees - spherical ) */
(PID.TID 0000.0001)                 9.676394719215337E+04,      /* J =  1 */
(PID.TID 0000.0001)                 9.770466612429133E+04,      /* J =  2 */
(PID.TID 0000.0001)                 9.861562326864147E+04,      /* J =  3 */
(PID.TID 0000.0001)                 9.949654113883300E+04,      /* J =  4 */
(PID.TID 0000.0001)                 1.003471513987490E+05,      /* J =  5 */
(PID.TID 0000.0001)                 1.011671949442642E+05,      /* J =  6 */
(PID.TID 0000.0001)                 1.019564219821708E+05,      /* J =  7 */
(PID.TID 0000.0001)                 1.027145921062676E+05,      /* J =  8 */
(PID.TID 0000.0001)                 1.034414743705903E+05,      /* J =  9 */
(PID.TID 0000.0001)                 1.041368473597596E+05,      /* J = 10 */
(PID.TID 0000.0001)                 1.048004992564268E+05,      /* J = 11 */
(PID.TID 0000.0001)                 1.054322279057953E+05,      /* J = 12 */
(PID.TID 0000.0001)                 1.060318408771987E+05,      /* J = 13 */
(PID.TID 0000.0001)                 1.065991555227174E+05,      /* J = 14 */
(PID.TID 0000.0001)                 1.071339990328148E+05,      /* J = 15 */
(PID.TID 0000.0001)                 1.076362084889763E+05,      /* J = 16 */
(PID.TID 0000.0001)                 1.081056309133368E+05,      /* J = 17 */
(PID.TID 0000.0001)                 1.085421233152783E+05,      /* J = 18 */
(PID.TID 0000.0001)                 1.089455527349868E+05,      /* J = 19 */
(PID.TID 0000.0001)                 1.093157962839529E+05,      /* J = 20 */
(PID.TID 0000.0001)                 1.096527411824051E+05,      /* J = 21 */
(PID.TID 0000.0001)                 1.099562847936631E+05,      /* J = 22 */
(PID.TID 0000.0001)                 1.102263346554026E+05,      /* J = 23 */
(PID.TID 0000.0001)                 1.104628085078195E+05,      /* J = 24 */
(PID.TID 0000.0001)                 1.106656343186877E+05,      /* J = 25 */
(PID.TID 0000.0001)                 1.108347503053004E+05,      /* J = 26 */
(PID.TID 0000.0001)                 1.109701049532897E+05,      /* J = 27 */
(PID.TID 0000.0001)                 1.110716570323187E+05,      /* J = 28 */
(PID.TID 0000.0001)                 1.111393756086404E+05,      /* J = 29 */
(PID.TID 0000.0001)     2 @  1.111732400545204E+05,             /* J = 30: 31 */
(PID.TID 0000.0001)                 1.111393756086404E+05,      /* J = 32 */
(PID.TID 0000.0001)                 1.110716570323187E+05,      /* J = 33 */
(PID.TID 0000.0001)                 1.109701049532897E+05,      /* J = 34 */
(PID.TID 0000.0001)                 1.108347503053004E+05,      /* J = 35 */
(PID.TID 0000.0001)                 1.106656343186877E+05,      /* J = 36 */
(PID.TID 0000.0001)                 1.104628085078195E+05,      /* J = 37 */
(PID.TID 0000.0001)                 1.102263346554026E+05,      /* J = 38 */
(PID.TID 0000.0001)                 1.099562847936631E+05,      /* J = 39 */
(PID.TID 0000.0001)                 1.096527411824051E+05,      /* J = 40 */
(PID.TID 0000.0001)                 1.093157962839529E+05,      /* J = 41 */
(PID.TID 0000.0001)                 1.089455527349868E+05,      /* J = 42 */
(PID.TID 0000.0001)                 1.085421233152783E+05,      /* J = 43 */
(PID.TID 0000.0001)                 1.081056309133368E+05,      /* J = 44 */
(PID.TID 0000.0001)                 1.076362084889763E+05,      /* J = 45 */
(PID.TID 0000.0001)                 1.071339990328148E+05,      /* J = 46 */
(PID.TID 0000.0001)                 1.065991555227174E+05,      /* J = 47 */
(PID.TID 0000.0001)                 1.060318408771987E+05,      /* J = 48 */
(PID.TID 0000.0001)                 1.054322279057953E+05,      /* J = 49 */
(PID.TID 0000.0001)                 1.048004992564268E+05,      /* J = 50 */
(PID.TID 0000.0001)                 1.041368473597596E+05,      /* J = 51 */
(PID.TID 0000.0001)                 1.034414743705903E+05,      /* J = 52 */
(PID.TID 0000.0001)                 1.027145921062676E+05,      /* J = 53 */
(PID.TID 0000.0001)                 1.019564219821708E+05,      /* J = 54 */
(PID.TID 0000.0001)                 1.011671949442642E+05,      /* J = 55 */
(PID.TID 0000.0001)                 1.003471513987490E+05,      /* J = 56 */
(PID.TID 0000.0001)                 9.949654113883300E+04,      /* J = 57 */
(PID.TID 0000.0001)                 9.861562326864147E+04,      /* J = 58 */
(PID.TID 0000.0001)                 9.770466612429133E+04,      /* J = 59 */
(PID.TID 0000.0001)                 9.676394719215337E+04       /* J = 60 */
(PID.TID 0000.0001)     ;
(PID.TID 0000.0001) dyF =  /* dyF(:,1,:,1) ( m - cartesian, degrees - spherical ) */
(PID.TID 0000.0001)    60 @  1.111774733520388E+05              /* I =  1: 60 */
(PID.TID 0000.0001)     ;
(PID.TID 0000.0001) dyF =  /* dyF(1,:,1,:) ( m - cartesian, degrees - spherical ) */
(PID.TID 0000.0001)    60 @  1.111774733520388E+05              /* J =  1: 60 */
(PID.TID 0000.0001)     ;
(PID.TID 0000.0001) dxG =  /* dxG(:,1,:,1) ( m - cartesian, degrees - spherical ) */
(PID.TID 0000.0001)    60 @  9.628251625143306E+04              /* I =  1: 60 */
(PID.TID 0000.0001)     ;
(PID.TID 0000.0001) dxG =  /* dxG(1,:,1,:) ( m - cartesian, degrees - spherical ) */
(PID.TID 0000.0001)                 9.628251625143306E+04,      /* J =  1 */
(PID.TID 0000.0001)                 9.723800918365814E+04,      /* J =  2 */
(PID.TID 0000.0001)                 9.816388247632014E+04,      /* J =  3 */
(PID.TID 0000.0001)                 9.905985409944497E+04,      /* J =  4 */
(PID.TID 0000.0001)                 9.992565113139676E+04,      /* J =  5 */
(PID.TID 0000.0001)                 1.007610098420124E+05,      /* J =  6 */
(PID.TID 0000.0001)                 1.015656757729363E+05,      /* J =  7 */
(PID.TID 0000.0001)                 1.023394038151311E+05,      /* J =  8 */
(PID.TID 0000.0001)                 1.030819582835396E+05,      /* J =  9 */
(PID.TID 0000.0001)                 1.037931129888777E+05,      /* J = 10 */
(PID.TID 0000.0001)                 1.044726513065328E+05,      /* J = 11 */
(PID.TID 0000.0001)                 1.051203662425507E+05,      /* J = 12 */
(PID.TID 0000.0001)                 1.057360604966873E+05,      /* J = 13 */
(PID.TID 0000.0001)                 1.063195465225083E+05,      /* J = 14 */
(PID.TID 0000.0001)                 1.068706465845181E+05,      /* J = 15 */
(PID.TID 0000.0001)                 1.073891928122989E+05,      /* J = 16 */
(PID.TID 0000.0001)                 1.078750272516467E+05,      /* J = 17 */
(PID.TID 0000.0001)                 1.083280019126848E+05,      /* J = 18 */
(PID.TID 0000.0001)                 1.087479788149434E+05,      /* J = 19 */
(PID.TID 0000.0001)                 1.091348300293896E+05,      /* J = 20 */
(PID.TID 0000.0001)                 1.094884377173960E+05,      /* J = 21 */
(PID.TID 0000.0001)                 1.098086941666353E+05,      /* J = 22 */
(PID.TID 0000.0001)                 1.100955018238909E+05,      /* J = 23 */
(PID.TID 0000.0001)                 1.103487733247717E+05,      /* J = 24 */
(PID.TID 0000.0001)                 1.105684315203253E+05,      /* J = 25 */
(PID.TID 0000.0001)                 1.107544095005374E+05,      /* J = 26 */
(PID.TID 0000.0001)                 1.109066506147135E+05,      /* J = 27 */
(PID.TID 0000.0001)                 1.110251084887355E+05,      /* J = 28 */
(PID.TID 0000.0001)                 1.111097470391875E+05,      /* J = 29 */
(PID.TID 0000.0001)                 1.111605404843471E+05,      /* J = 30 */
(PID.TID 0000.0001)                 1.111774733520388E+05,      /* J = 31 */
(PID.TID 0000.0001)                 1.111605404843471E+05,      /* J = 32 */
(PID.TID 0000.0001)                 1.111097470391875E+05,      /* J = 33 */
(PID.TID 0000.0001)                 1.110251084887355E+05,      /* J = 34 */
(PID.TID 0000.0001)                 1.109066506147135E+05,      /* J = 35 */
(PID.TID 0000.0001)                 1.107544095005374E+05,      /* J = 36 */
(PID.TID 0000.0001)                 1.105684315203253E+05,      /* J = 37 */
(PID.TID 0000.0001)                 1.103487733247717E+05,      /* J = 38 */
(PID.TID 0000.0001)                 1.100955018238909E+05,      /* J = 39 */
(PID.TID 0000.0001)                 1.098086941666353E+05,      /* J = 40 */
(PID.TID 0000.0001)                 1.094884377173960E+05,      /* J = 41 */
(PID.TID 0000.0001)                 1.091348300293896E+05,      /* J = 42 */
(PID.TID 0000.0001)                 1.087479788149434E+05,      /* J = 43 */
(PID.TID 0000.0001)                 1.083280019126848E+05,      /* J = 44 */
(PID.TID 0000.0001)                 1.078750272516467E+05,      /* J = 45 */
(PID.TID 0000.0001)                 1.073891928122989E+05,      /* J = 46 */
(PID.TID 0000.0001)                 1.068706465845181E+05,      /* J = 47 */
(PID.TID 0000.0001)                 1.063195465225083E+05,      /* J = 48 */
(PID.TID 0000.0001)                 1.057360604966873E+05,      /* J = 49 */
(PID.TID 0000.0001)                 1.051203662425507E+05,      /* J = 50 */
(PID.TID 0000.0001)                 1.044726513065328E+05,      /* J = 51 */
(PID.TID 0000.0001)                 1.037931129888777E+05,      /* J = 52 */
(PID.TID 0000.0001)                 1.030819582835396E+05,      /* J = 53 */
(PID.TID 0000.0001)                 1.023394038151311E+05,      /* J = 54 */
(PID.TID 0000.0001)                 1.015656757729363E+05,      /* J = 55 */
(PID.TID 0000.0001)                 1.007610098420124E+05,      /* J = 56 */
(PID.TID 0000.0001)                 9.992565113139676E+04,      /* J = 57 */
(PID.TID 0000.0001)                 9.905985409944497E+04,      /* J = 58 */
(PID.TID 0000.0001)                 9.816388247632014E+04,      /* J = 59 */
(PID.TID 0000.0001)                 9.723800918365814E+04       /* J = 60 */
(PID.TID 0000.0001)     ;
(PID.TID 0000.0001) dyG =  /* dyG(:,1,:,1) ( m - cartesian, degrees - spherical ) */
(PID.TID 0000.0001)    60 @  1.111774733520388E+05              /* I =  1: 60 */
(PID.TID 0000.0001)     ;
(PID.TID 0000.0001) dyG =  /* dyG(1,:,1,:) ( m - cartesian, degrees - spherical ) */
(PID.TID 0000.0001)    60 @  1.111774733520388E+05              /* J =  1: 60 */
(PID.TID 0000.0001)     ;
(PID.TID 0000.0001) dxC =  /* dxC(:,1,:,1) ( m - cartesian, degrees - spherical ) */
(PID.TID 0000.0001)    60 @  9.676394719215337E+04              /* I =  1: 60 */
(PID.TID 0000.0001)     ;
(PID.TID 0000.0001) dxC =  /* dxC(1,:,1,:) ( m - cartesian, degrees - spherical ) */
(PID.TID 0000.0001)                 9.676394719215337E+04,      /* J =  1 */
(PID.TID 0000.0001)                 9.770466612429133E+04,      /* J =  2 */
(PID.TID 0000.0001)                 9.861562326864147E+04,      /* J =  3 */
(PID.TID 0000.0001)                 9.949654113883300E+04,      /* J =  4 */
(PID.TID 0000.0001)                 1.003471513987490E+05,      /* J =  5 */
(PID.TID 0000.0001)                 1.011671949442642E+05,      /* J =  6 */
(PID.TID 0000.0001)                 1.019564219821708E+05,      /* J =  7 */
(PID.TID 0000.0001)                 1.027145921062676E+05,      /* J =  8 */
(PID.TID 0000.0001)                 1.034414743705903E+05,      /* J =  9 */
(PID.TID 0000.0001)                 1.041368473597596E+05,      /* J = 10 */
(PID.TID 0000.0001)                 1.048004992564268E+05,      /* J = 11 */
(PID.TID 0000.0001)                 1.054322279057953E+05,      /* J = 12 */
(PID.TID 0000.0001)                 1.060318408771987E+05,      /* J = 13 */
(PID.TID 0000.0001)                 1.065991555227174E+05,      /* J = 14 */
(PID.TID 0000.0001)                 1.071339990328148E+05,      /* J = 15 */
(PID.TID 0000.0001)                 1.076362084889763E+05,      /* J = 16 */
(PID.TID 0000.0001)                 1.081056309133368E+05,      /* J = 17 */
(PID.TID 0000.0001)                 1.085421233152783E+05,      /* J = 18 */
(PID.TID 0000.0001)                 1.089455527349868E+05,      /* J = 19 */
(PID.TID 0000.0001)                 1.093157962839529E+05,      /* J = 20 */
(PID.TID 0000.0001)                 1.096527411824051E+05,      /* J = 21 */
(PID.TID 0000.0001)                 1.099562847936631E+05,      /* J = 22 */
(PID.TID 0000.0001)                 1.102263346554026E+05,      /* J = 23 */
(PID.TID 0000.0001)                 1.104628085078195E+05,      /* J = 24 */
(PID.TID 0000.0001)                 1.106656343186877E+05,      /* J = 25 */
(PID.TID 0000.0001)                 1.108347503053004E+05,      /* J = 26 */
(PID.TID 0000.0001)                 1.109701049532897E+05,      /* J = 27 */
(PID.TID 0000.0001)                 1.110716570323187E+05,      /* J = 28 */
(PID.TID 0000.0001)                 1.111393756086404E+05,      /* J = 29 */
(PID.TID 0000.0001)     2 @  1.111732400545204E+05,             /* J = 30: 31 */
(PID.TID 0000.0001)                 1.111393756086404E+05,      /* J = 32 */
(PID.TID 0000.0001)                 1.110716570323187E+05,      /* J = 33 */
(PID.TID 0000.0001)                 1.109701049532897E+05,      /* J = 34 */
(PID.TID 0000.0001)                 1.108347503053004E+05,      /* J = 35 */
(PID.TID 0000.0001)                 1.106656343186877E+05,      /* J = 36 */
(PID.TID 0000.0001)                 1.104628085078195E+05,      /* J = 37 */
(PID.TID 0000.0001)                 1.102263346554026E+05,      /* J = 38 */
(PID.TID 0000.0001)                 1.099562847936631E+05,      /* J = 39 */
(PID.TID 0000.0001)                 1.096527411824051E+05,      /* J = 40 */
(PID.TID 0000.0001)                 1.093157962839529E+05,      /* J = 41 */
(PID.TID 0000.0001)                 1.089455527349868E+05,      /* J = 42 */
(PID.TID 0000.0001)                 1.085421233152783E+05,      /* J = 43 */
(PID.TID 0000.0001)                 1.081056309133368E+05,      /* J = 44 */
(PID.TID 0000.0001)                 1.076362084889763E+05,      /* J = 45 */
(PID.TID 0000.0001)                 1.071339990328148E+05,      /* J = 46 */
(PID.TID 0000.0001)                 1.065991555227174E+05,      /* J = 47 */
(PID.TID 0000.0001)                 1.060318408771987E+05,      /* J = 48 */
(PID.TID 0000.0001)                 1.054322279057953E+05,      /* J = 49 */
(PID.TID 0000.0001)                 1.048004992564268E+05,      /* J = 50 */
(PID.TID 0000.0001)                 1.041368473597596E+05,      /* J = 51 */
(PID.TID 0000.0001)                 1.034414743705903E+05,      /* J = 52 */
(PID.TID 0000.0001)                 1.027145921062676E+05,      /* J = 53 */
(PID.TID 0000.0001)                 1.019564219821708E+05,      /* J = 54 */
(PID.TID 0000.0001)                 1.011671949442642E+05,      /* J = 55 */
(PID.TID 0000.0001)                 1.003471513987490E+05,      /* J = 56 */
(PID.TID 0000.0001)                 9.949654113883300E+04,      /* J = 57 */
(PID.TID 0000.0001)                 9.861562326864147E+04,      /* J = 58 */
(PID.TID 0000.0001)                 9.770466612429133E+04,      /* J = 59 */
(PID.TID 0000.0001)                 9.676394719215337E+04       /* J = 60 */
(PID.TID 0000.0001)     ;
(PID.TID 0000.0001) dyC =  /* dyC(:,1,:,1) ( m - cartesian, degrees - spherical ) */
(PID.TID 0000.0001)    60 @  1.111774733520388E+05              /* I =  1: 60 */
(PID.TID 0000.0001)     ;
(PID.TID 0000.0001) dyC =  /* dyC(1,:,1,:) ( m - cartesian, degrees - spherical ) */
(PID.TID 0000.0001)    60 @  1.111774733520388E+05              /* J =  1: 60 */
(PID.TID 0000.0001)     ;
(PID.TID 0000.0001) dxV =  /* dxV(:,1,:,1) ( m - cartesian, degrees - spherical ) */
(PID.TID 0000.0001)    60 @  9.628251625143306E+04              /* I =  1: 60 */
(PID.TID 0000.0001)     ;
(PID.TID 0000.0001) dxV =  /* dxV(1,:,1,:) ( m - cartesian, degrees - spherical ) */
(PID.TID 0000.0001)                 9.628251625143306E+04,      /* J =  1 */
(PID.TID 0000.0001)                 9.723800918365814E+04,      /* J =  2 */
(PID.TID 0000.0001)                 9.816388247632014E+04,      /* J =  3 */
(PID.TID 0000.0001)                 9.905985409944497E+04,      /* J =  4 */
(PID.TID 0000.0001)                 9.992565113139676E+04,      /* J =  5 */
(PID.TID 0000.0001)                 1.007610098420124E+05,      /* J =  6 */
(PID.TID 0000.0001)                 1.015656757729363E+05,      /* J =  7 */
(PID.TID 0000.0001)                 1.023394038151311E+05,      /* J =  8 */
(PID.TID 0000.0001)                 1.030819582835396E+05,      /* J =  9 */
(PID.TID 0000.0001)                 1.037931129888777E+05,      /* J = 10 */
(PID.TID 0000.0001)                 1.044726513065328E+05,      /* J = 11 */
(PID.TID 0000.0001)                 1.051203662425507E+05,      /* J = 12 */
(PID.TID 0000.0001)                 1.057360604966873E+05,      /* J = 13 */
(PID.TID 0000.0001)                 1.063195465225083E+05,      /* J = 14 */
(PID.TID 0000.0001)                 1.068706465845181E+05,      /* J = 15 */
(PID.TID 0000.0001)                 1.073891928122989E+05,      /* J = 16 */
(PID.TID 0000.0001)                 1.078750272516467E+05,      /* J = 17 */
(PID.TID 0000.0001)                 1.083280019126848E+05,      /* J = 18 */
(PID.TID 0000.0001)                 1.087479788149434E+05,      /* J = 19 */
(PID.TID 0000.0001)                 1.091348300293896E+05,      /* J = 20 */
(PID.TID 0000.0001)                 1.094884377173960E+05,      /* J = 21 */
(PID.TID 0000.0001)                 1.098086941666353E+05,      /* J = 22 */
(PID.TID 0000.0001)                 1.100955018238909E+05,      /* J = 23 */
(PID.TID 0000.0001)                 1.103487733247717E+05,      /* J = 24 */
(PID.TID 0000.0001)                 1.105684315203253E+05,      /* J = 25 */
(PID.TID 0000.0001)                 1.107544095005374E+05,      /* J = 26 */
(PID.TID 0000.0001)                 1.109066506147135E+05,      /* J = 27 */
(PID.TID 0000.0001)                 1.110251084887355E+05,      /* J = 28 */
(PID.TID 0000.0001)                 1.111097470391875E+05,      /* J = 29 */
(PID.TID 0000.0001)                 1.111605404843471E+05,      /* J = 30 */
(PID.TID 0000.0001)                 1.111774733520388E+05,      /* J = 31 */
(PID.TID 0000.0001)                 1.111605404843471E+05,      /* J = 32 */
(PID.TID 0000.0001)                 1.111097470391875E+05,      /* J = 33 */
(PID.TID 0000.0001)                 1.110251084887355E+05,      /* J = 34 */
(PID.TID 0000.0001)                 1.109066506147135E+05,      /* J = 35 */
(PID.TID 0000.0001)                 1.107544095005374E+05,      /* J = 36 */
(PID.TID 0000.0001)                 1.105684315203253E+05,      /* J = 37 */
(PID.TID 0000.0001)                 1.103487733247717E+05,      /* J = 38 */
(PID.TID 0000.0001)                 1.100955018238909E+05,      /* J = 39 */
(PID.TID 0000.0001)                 1.098086941666353E+05,      /* J = 40 */
(PID.TID 0000.0001)                 1.094884377173960E+05,      /* J = 41 */
(PID.TID 0000.0001)                 1.091348300293896E+05,      /* J = 42 */
(PID.TID 0000.0001)                 1.087479788149434E+05,      /* J = 43 */
(PID.TID 0000.0001)                 1.083280019126848E+05,      /* J = 44 */
(PID.TID 0000.0001)                 1.078750272516467E+05,      /* J = 45 */
(PID.TID 0000.0001)                 1.073891928122989E+05,      /* J = 46 */
(PID.TID 0000.0001)                 1.068706465845181E+05,      /* J = 47 */
(PID.TID 0000.0001)                 1.063195465225083E+05,      /* J = 48 */
(PID.TID 0000.0001)                 1.057360604966873E+05,      /* J = 49 */
(PID.TID 0000.0001)                 1.051203662425507E+05,      /* J = 50 */
(PID.TID 0000.0001)                 1.044726513065328E+05,      /* J = 51 */
(PID.TID 0000.0001)                 1.037931129888777E+05,      /* J = 52 */
(PID.TID 0000.0001)                 1.030819582835396E+05,      /* J = 53 */
(PID.TID 0000.0001)                 1.023394038151311E+05,      /* J = 54 */
(PID.TID 0000.0001)                 1.015656757729363E+05,      /* J = 55 */
(PID.TID 0000.0001)                 1.007610098420124E+05,      /* J = 56 */
(PID.TID 0000.0001)                 9.992565113139676E+04,      /* J = 57 */
(PID.TID 0000.0001)                 9.905985409944497E+04,      /* J = 58 */
(PID.TID 0000.0001)                 9.816388247632014E+04,      /* J = 59 */
(PID.TID 0000.0001)                 9.723800918365814E+04       /* J = 60 */
(PID.TID 0000.0001)     ;
(PID.TID 0000.0001) dyU =  /* dyU(:,1,:,1) ( m - cartesian, degrees - spherical ) */
(PID.TID 0000.0001)    60 @  1.111774733520388E+05              /* I =  1: 60 */
(PID.TID 0000.0001)     ;
(PID.TID 0000.0001) dyU =  /* dyU(1,:,1,:) ( m - cartesian, degrees - spherical ) */
(PID.TID 0000.0001)    60 @  1.111774733520388E+05              /* J =  1: 60 */
(PID.TID 0000.0001)     ;
(PID.TID 0000.0001) rA =  /* rA(:,1,:,1) ( m - cartesian, degrees - spherical ) */
(PID.TID 0000.0001)    60 @  1.075783461652121E+10              /* I =  1: 60 */
(PID.TID 0000.0001)     ;
(PID.TID 0000.0001) rA =  /* rA(1,:,1,:) ( m - cartesian, degrees - spherical ) */
(PID.TID 0000.0001)                 1.075783461652121E+10,      /* J =  1 */
(PID.TID 0000.0001)                 1.086242004307973E+10,      /* J =  2 */
(PID.TID 0000.0001)                 1.096369667126643E+10,      /* J =  3 */
(PID.TID 0000.0001)                 1.106163365123932E+10,      /* J =  4 */
(PID.TID 0000.0001)                 1.115620115044565E+10,      /* J =  5 */
(PID.TID 0000.0001)                 1.124737036270894E+10,      /* J =  6 */
(PID.TID 0000.0001)                 1.133511351700410E+10,      /* J =  7 */
(PID.TID 0000.0001)                 1.141940388591623E+10,      /* J =  8 */
(PID.TID 0000.0001)                 1.150021579378243E+10,      /* J =  9 */
(PID.TID 0000.0001)                 1.157752462451283E+10,      /* J = 10 */
(PID.TID 0000.0001)                 1.165130682908852E+10,      /* J = 11 */
(PID.TID 0000.0001)                 1.172153993273540E+10,      /* J = 12 */
(PID.TID 0000.0001)                 1.178820254176959E+10,      /* J = 13 */
(PID.TID 0000.0001)                 1.185127435011475E+10,      /* J = 14 */
(PID.TID 0000.0001)                 1.191073614548695E+10,      /* J = 15 */
(PID.TID 0000.0001)                 1.196656981524731E+10,      /* J = 16 */
(PID.TID 0000.0001)                 1.201875835191924E+10,      /* J = 17 */
(PID.TID 0000.0001)                 1.206728585836883E+10,      /* J = 18 */
(PID.TID 0000.0001)                 1.211213755264755E+10,      /* J = 19 */
(PID.TID 0000.0001)                 1.215329977249479E+10,      /* J = 20 */
(PID.TID 0000.0001)                 1.219075997949969E+10,      /* J = 21 */
(PID.TID 0000.0001)                 1.222450676292028E+10,      /* J = 22 */
(PID.TID 0000.0001)                 1.225452984315944E+10,      /* J = 23 */
(PID.TID 0000.0001)                 1.228082007489607E+10,      /* J = 24 */
(PID.TID 0000.0001)                 1.230336944987093E+10,      /* J = 25 */
(PID.TID 0000.0001)                 1.232217109932592E+10,      /* J = 26 */
(PID.TID 0000.0001)                 1.233721929609651E+10,      /* J = 27 */
(PID.TID 0000.0001)                 1.234850945635619E+10,      /* J = 28 */
(PID.TID 0000.0001)                 1.235603814101275E+10,      /* J = 29 */
(PID.TID 0000.0001)     2 @  1.235980305675594E+10,             /* J = 30: 31 */
(PID.TID 0000.0001)                 1.235603814101275E+10,      /* J = 32 */
(PID.TID 0000.0001)                 1.234850945635619E+10,      /* J = 33 */
(PID.TID 0000.0001)                 1.233721929609651E+10,      /* J = 34 */
(PID.TID 0000.0001)                 1.232217109932592E+10,      /* J = 35 */
(PID.TID 0000.0001)                 1.230336944987093E+10,      /* J = 36 */
(PID.TID 0000.0001)                 1.228082007489607E+10,      /* J = 37 */
(PID.TID 0000.0001)                 1.225452984315944E+10,      /* J = 38 */
(PID.TID 0000.0001)                 1.222450676292028E+10,      /* J = 39 */
(PID.TID 0000.0001)                 1.219075997949969E+10,      /* J = 40 */
(PID.TID 0000.0001)                 1.215329977249479E+10,      /* J = 41 */
(PID.TID 0000.0001)                 1.211213755264755E+10,      /* J = 42 */
(PID.TID 0000.0001)                 1.206728585836883E+10,      /* J = 43 */
(PID.TID 0000.0001)                 1.201875835191924E+10,      /* J = 44 */
(PID.TID 0000.0001)                 1.196656981524731E+10,      /* J = 45 */
(PID.TID 0000.0001)                 1.191073614548695E+10,      /* J = 46 */
(PID.TID 0000.0001)                 1.185127435011475E+10,      /* J = 47 */
(PID.TID 0000.0001)                 1.178820254176959E+10,      /* J = 48 */
(PID.TID 0000.0001)                 1.172153993273540E+10,      /* J = 49 */
(PID.TID 0000.0001)                 1.165130682908852E+10,      /* J = 50 */
(PID.TID 0000.0001)                 1.157752462451283E+10,      /* J = 51 */
(PID.TID 0000.0001)                 1.150021579378243E+10,      /* J = 52 */
(PID.TID 0000.0001)                 1.141940388591623E+10,      /* J = 53 */
(PID.TID 0000.0001)                 1.133511351700410E+10,      /* J = 54 */
(PID.TID 0000.0001)                 1.124737036270894E+10,      /* J = 55 */
(PID.TID 0000.0001)                 1.115620115044565E+10,      /* J = 56 */
(PID.TID 0000.0001)                 1.106163365123932E+10,      /* J = 57 */
(PID.TID 0000.0001)                 1.096369667126643E+10,      /* J = 58 */
(PID.TID 0000.0001)                 1.086242004307973E+10,      /* J = 59 */
(PID.TID 0000.0001)                 1.075783461652121E+10       /* J = 60 */
(PID.TID 0000.0001)     ;
(PID.TID 0000.0001) rAw =  /* rAw(:,1,:,1) ( m - cartesian, degrees - spherical ) */
(PID.TID 0000.0001)    60 @  1.075783461652121E+10              /* I =  1: 60 */
(PID.TID 0000.0001)     ;
(PID.TID 0000.0001) rAw =  /* rAw(1,:,1,:) ( m - cartesian, degrees - spherical ) */
(PID.TID 0000.0001)                 1.075783461652121E+10,      /* J =  1 */
(PID.TID 0000.0001)                 1.086242004307973E+10,      /* J =  2 */
(PID.TID 0000.0001)                 1.096369667126643E+10,      /* J =  3 */
(PID.TID 0000.0001)                 1.106163365123932E+10,      /* J =  4 */
(PID.TID 0000.0001)                 1.115620115044565E+10,      /* J =  5 */
(PID.TID 0000.0001)                 1.124737036270894E+10,      /* J =  6 */
(PID.TID 0000.0001)                 1.133511351700410E+10,      /* J =  7 */
(PID.TID 0000.0001)                 1.141940388591623E+10,      /* J =  8 */
(PID.TID 0000.0001)                 1.150021579378243E+10,      /* J =  9 */
(PID.TID 0000.0001)                 1.157752462451283E+10,      /* J = 10 */
(PID.TID 0000.0001)                 1.165130682908852E+10,      /* J = 11 */
(PID.TID 0000.0001)                 1.172153993273540E+10,      /* J = 12 */
(PID.TID 0000.0001)                 1.178820254176959E+10,      /* J = 13 */
(PID.TID 0000.0001)                 1.185127435011475E+10,      /* J = 14 */
(PID.TID 0000.0001)                 1.191073614548695E+10,      /* J = 15 */
(PID.TID 0000.0001)                 1.196656981524731E+10,      /* J = 16 */
(PID.TID 0000.0001)                 1.201875835191924E+10,      /* J = 17 */
(PID.TID 0000.0001)                 1.206728585836883E+10,      /* J = 18 */
(PID.TID 0000.0001)                 1.211213755264755E+10,      /* J = 19 */
(PID.TID 0000.0001)                 1.215329977249479E+10,      /* J = 20 */
(PID.TID 0000.0001)                 1.219075997949969E+10,      /* J = 21 */
(PID.TID 0000.0001)                 1.222450676292028E+10,      /* J = 22 */
(PID.TID 0000.0001)                 1.225452984315944E+10,      /* J = 23 */
(PID.TID 0000.0001)                 1.228082007489607E+10,      /* J = 24 */
(PID.TID 0000.0001)                 1.230336944987093E+10,      /* J = 25 */
(PID.TID 0000.0001)                 1.232217109932592E+10,      /* J = 26 */
(PID.TID 0000.0001)                 1.233721929609651E+10,      /* J = 27 */
(PID.TID 0000.0001)                 1.234850945635619E+10,      /* J = 28 */
(PID.TID 0000.0001)                 1.235603814101275E+10,      /* J = 29 */
(PID.TID 0000.0001)     2 @  1.235980305675594E+10,             /* J = 30: 31 */
(PID.TID 0000.0001)                 1.235603814101275E+10,      /* J = 32 */
(PID.TID 0000.0001)                 1.234850945635619E+10,      /* J = 33 */
(PID.TID 0000.0001)                 1.233721929609651E+10,      /* J = 34 */
(PID.TID 0000.0001)                 1.232217109932592E+10,      /* J = 35 */
(PID.TID 0000.0001)                 1.230336944987093E+10,      /* J = 36 */
(PID.TID 0000.0001)                 1.228082007489607E+10,      /* J = 37 */
(PID.TID 0000.0001)                 1.225452984315944E+10,      /* J = 38 */
(PID.TID 0000.0001)                 1.222450676292028E+10,      /* J = 39 */
(PID.TID 0000.0001)                 1.219075997949969E+10,      /* J = 40 */
(PID.TID 0000.0001)                 1.215329977249479E+10,      /* J = 41 */
(PID.TID 0000.0001)                 1.211213755264755E+10,      /* J = 42 */
(PID.TID 0000.0001)                 1.206728585836883E+10,      /* J = 43 */
(PID.TID 0000.0001)                 1.201875835191924E+10,      /* J = 44 */
(PID.TID 0000.0001)                 1.196656981524731E+10,      /* J = 45 */
(PID.TID 0000.0001)                 1.191073614548695E+10,      /* J = 46 */
(PID.TID 0000.0001)                 1.185127435011475E+10,      /* J = 47 */
(PID.TID 0000.0001)                 1.178820254176959E+10,      /* J = 48 */
(PID.TID 0000.0001)                 1.172153993273540E+10,      /* J = 49 */
(PID.TID 0000.0001)                 1.165130682908852E+10,      /* J = 50 */
(PID.TID 0000.0001)                 1.157752462451283E+10,      /* J = 51 */
(PID.TID 0000.0001)                 1.150021579378243E+10,      /* J = 52 */
(PID.TID 0000.0001)                 1.141940388591623E+10,      /* J = 53 */
(PID.TID 0000.0001)                 1.133511351700410E+10,      /* J = 54 */
(PID.TID 0000.0001)                 1.124737036270894E+10,      /* J = 55 */
(PID.TID 0000.0001)                 1.115620115044565E+10,      /* J = 56 */
(PID.TID 0000.0001)                 1.106163365123932E+10,      /* J = 57 */
(PID.TID 0000.0001)                 1.096369667126643E+10,      /* J = 58 */
(PID.TID 0000.0001)                 1.086242004307973E+10,      /* J = 59 */
(PID.TID 0000.0001)                 1.075783461652121E+10       /* J = 60 */
(PID.TID 0000.0001)     ;
(PID.TID 0000.0001) rAs =  /* rAs(:,1,:,1) ( m - cartesian, degrees - spherical ) */
(PID.TID 0000.0001)    60 @  1.070431102028696E+10              /* I =  1: 60 */
(PID.TID 0000.0001)     ;
(PID.TID 0000.0001) rAs =  /* rAs(1,:,1,:) ( m - cartesian, degrees - spherical ) */
(PID.TID 0000.0001)                 1.070431102028696E+10,      /* J =  1 */
(PID.TID 0000.0001)                 1.081053896199884E+10,      /* J =  2 */
(PID.TID 0000.0001)                 1.091347390881878E+10,      /* J =  3 */
(PID.TID 0000.0001)                 1.101308450576489E+10,      /* J =  4 */
(PID.TID 0000.0001)                 1.110934041048438E+10,      /* J =  5 */
(PID.TID 0000.0001)                 1.120221230249630E+10,      /* J =  6 */
(PID.TID 0000.0001)                 1.129167189212254E+10,      /* J =  7 */
(PID.TID 0000.0001)                 1.137769192910563E+10,      /* J =  8 */
(PID.TID 0000.0001)                 1.146024621090887E+10,      /* J =  9 */
(PID.TID 0000.0001)                 1.153930959069844E+10,      /* J = 10 */
(PID.TID 0000.0001)                 1.161485798500284E+10,      /* J = 11 */
(PID.TID 0000.0001)                 1.168686838104932E+10,      /* J = 12 */
(PID.TID 0000.0001)                 1.175531884377377E+10,      /* J = 13 */
(PID.TID 0000.0001)                 1.182018852250200E+10,      /* J = 14 */
(PID.TID 0000.0001)                 1.188145765730162E+10,      /* J = 15 */
(PID.TID 0000.0001)                 1.193910758500048E+10,      /* J = 16 */
(PID.TID 0000.0001)                 1.199312074487229E+10,      /* J = 17 */
(PID.TID 0000.0001)                 1.204348068398519E+10,      /* J = 18 */
(PID.TID 0000.0001)                 1.209017206221395E+10,      /* J = 19 */
(PID.TID 0000.0001)                 1.213318065691243E+10,      /* J = 20 */
(PID.TID 0000.0001)                 1.217249336724606E+10,      /* J = 21 */
(PID.TID 0000.0001)                 1.220809821818243E+10,      /* J = 22 */
(PID.TID 0000.0001)                 1.223998436413906E+10,      /* J = 23 */
(PID.TID 0000.0001)                 1.226814209228693E+10,      /* J = 24 */
(PID.TID 0000.0001)                 1.229256282550938E+10,      /* J = 25 */
(PID.TID 0000.0001)                 1.231323912501442E+10,      /* J = 26 */
(PID.TID 0000.0001)                 1.233016469260097E+10,      /* J = 27 */
(PID.TID 0000.0001)                 1.234333437257717E+10,      /* J = 28 */
(PID.TID 0000.0001)                 1.235274415333090E+10,      /* J = 29 */
(PID.TID 0000.0001)                 1.235839116855182E+10,      /* J = 30 */
(PID.TID 0000.0001)                 1.236027369810437E+10,      /* J = 31 */
(PID.TID 0000.0001)                 1.235839116855182E+10,      /* J = 32 */
(PID.TID 0000.0001)                 1.235274415333090E+10,      /* J = 33 */
(PID.TID 0000.0001)                 1.234333437257717E+10,      /* J = 34 */
(PID.TID 0000.0001)                 1.233016469260097E+10,      /* J = 35 */
(PID.TID 0000.0001)                 1.231323912501442E+10,      /* J = 36 */
(PID.TID 0000.0001)                 1.229256282550938E+10,      /* J = 37 */
(PID.TID 0000.0001)                 1.226814209228693E+10,      /* J = 38 */
(PID.TID 0000.0001)                 1.223998436413906E+10,      /* J = 39 */
(PID.TID 0000.0001)                 1.220809821818243E+10,      /* J = 40 */
(PID.TID 0000.0001)                 1.217249336724606E+10,      /* J = 41 */
(PID.TID 0000.0001)                 1.213318065691243E+10,      /* J = 42 */
(PID.TID 0000.0001)                 1.209017206221395E+10,      /* J = 43 */
(PID.TID 0000.0001)                 1.204348068398519E+10,      /* J = 44 */
(PID.TID 0000.0001)                 1.199312074487229E+10,      /* J = 45 */
(PID.TID 0000.0001)                 1.193910758500048E+10,      /* J = 46 */
(PID.TID 0000.0001)                 1.188145765730162E+10,      /* J = 47 */
(PID.TID 0000.0001)                 1.182018852250200E+10,      /* J = 48 */
(PID.TID 0000.0001)                 1.175531884377377E+10,      /* J = 49 */
(PID.TID 0000.0001)                 1.168686838104932E+10,      /* J = 50 */
(PID.TID 0000.0001)                 1.161485798500284E+10,      /* J = 51 */
(PID.TID 0000.0001)                 1.153930959069844E+10,      /* J = 52 */
(PID.TID 0000.0001)                 1.146024621090887E+10,      /* J = 53 */
(PID.TID 0000.0001)                 1.137769192910563E+10,      /* J = 54 */
(PID.TID 0000.0001)                 1.129167189212254E+10,      /* J = 55 */
(PID.TID 0000.0001)                 1.120221230249630E+10,      /* J = 56 */
(PID.TID 0000.0001)                 1.110934041048438E+10,      /* J = 57 */
(PID.TID 0000.0001)                 1.101308450576489E+10,      /* J = 58 */
(PID.TID 0000.0001)                 1.091347390881878E+10,      /* J = 59 */
(PID.TID 0000.0001)                 1.081053896199884E+10       /* J = 60 */
(PID.TID 0000.0001)     ;
(PID.TID 0000.0001) 
(PID.TID 0000.0001) // =======================================================
(PID.TID 0000.0001) // Field Initial Temperature at iteration          1
(PID.TID 0000.0001) // CMIN =          2.000000000000000E+01
(PID.TID 0000.0001) // CMAX =          2.000000000000000E+01
(PID.TID 0000.0001) // CINT =          0.000000000000000E+00
(PID.TID 0000.0001) // SYMBOLS (CMIN->CMAX): -abcdefghijklmnopqrstuvwxyz+
(PID.TID 0000.0001) //                  0.0: .
(PID.TID 0000.0001) // RANGE I (Lo:Hi:Step):(   1:  60:   1)
(PID.TID 0000.0001) // RANGE J (Lo:Hi:Step):(  60:   1:  -1)
(PID.TID 0000.0001) // RANGE K (Lo:Hi:Step):(   1:   1:   1)
(PID.TID 0000.0001) // =======================================================
(PID.TID 0000.0001) K =   1
(PID.TID 0000.0001)                I=10      I=20      I=30      I=40      I=50      I=60
(PID.TID 0000.0001) |--J--|123456789|123456789|123456789|123456789|123456789|123456789|
(PID.TID 0000.0001)     60 ............................................................
(PID.TID 0000.0001)     59 -----------------------------------------------------------.
(PID.TID 0000.0001)     58 -----------------------------------------------------------.
(PID.TID 0000.0001)     57 -----------------------------------------------------------.
(PID.TID 0000.0001)     56 -----------------------------------------------------------.
(PID.TID 0000.0001)     55 -----------------------------------------------------------.
(PID.TID 0000.0001)     54 -----------------------------------------------------------.
(PID.TID 0000.0001)     53 -----------------------------------------------------------.
(PID.TID 0000.0001)     52 -----------------------------------------------------------.
(PID.TID 0000.0001)     51 -----------------------------------------------------------.
(PID.TID 0000.0001)     50 -----------------------------------------------------------.
(PID.TID 0000.0001)     49 -----------------------------------------------------------.
(PID.TID 0000.0001)     48 -----------------------------------------------------------.
(PID.TID 0000.0001)     47 -----------------------------------------------------------.
(PID.TID 0000.0001)     46 -----------------------------------------------------------.
(PID.TID 0000.0001)     45 -----------------------------------------------------------.
(PID.TID 0000.0001)     44 -----------------------------------------------------------.
(PID.TID 0000.0001)     43 -----------------------------------------------------------.
(PID.TID 0000.0001)     42 -----------------------------------------------------------.
(PID.TID 0000.0001)     41 -----------------------------------------------------------.
(PID.TID 0000.0001)     40 -----------------------------------------------------------.
(PID.TID 0000.0001)     39 -----------------------------------------------------------.
(PID.TID 0000.0001)     38 -----------------------------------------------------------.
(PID.TID 0000.0001)     37 -----------------------------------------------------------.
(PID.TID 0000.0001)     36 -----------------------------------------------------------.
(PID.TID 0000.0001)     35 -----------------------------------------------------------.
(PID.TID 0000.0001)     34 -----------------------------------------------------------.
(PID.TID 0000.0001)     33 -----------------------------------------------------------.
(PID.TID 0000.0001)     32 -----------------------------------------------------------.
(PID.TID 0000.0001)     31 -----------------------------------------------------------.
(PID.TID 0000.0001)     30 -----------------------------------------------------------.
(PID.TID 0000.0001)     29 -----------------------------------------------------------.
(PID.TID 0000.0001)     28 -----------------------------------------------------------.
(PID.TID 0000.0001)     27 -----------------------------------------------------------.
(PID.TID 0000.0001)     26 -----------------------------------------------------------.
(PID.TID 0000.0001)     25 -----------------------------------------------------------.
(PID.TID 0000.0001)     24 -----------------------------------------------------------.
(PID.TID 0000.0001)     23 -----------------------------------------------------------.
(PID.TID 0000.0001)     22 -----------------------------------------------------------.
(PID.TID 0000.0001)     21 -----------------------------------------------------------.
(PID.TID 0000.0001)     20 -----------------------------------------------------------.
(PID.TID 0000.0001)     19 -----------------------------------------------------------.
(PID.TID 0000.0001)     18 -----------------------------------------------------------.
(PID.TID 0000.0001)     17 -----------------------------------------------------------.
(PID.TID 0000.0001)     16 -----------------------------------------------------------.
(PID.TID 0000.0001)     15 -----------------------------------------------------------.
(PID.TID 0000.0001)     14 -----------------------------------------------------------.
(PID.TID 0000.0001)     13 -----------------------------------------------------------.
(PID.TID 0000.0001)     12 -----------------------------------------------------------.
(PID.TID 0000.0001)     11 -----------------------------------------------------------.
(PID.TID 0000.0001)     10 -----------------------------------------------------------.
(PID.TID 0000.0001)      9 -----------------------------------------------------------.
(PID.TID 0000.0001)      8 -----------------------------------------------------------.
(PID.TID 0000.0001)      7 -----------------------------------------------------------.
(PID.TID 0000.0001)      6 -----------------------------------------------------------.
(PID.TID 0000.0001)      5 -----------------------------------------------------------.
(PID.TID 0000.0001)      4 -----------------------------------------------------------.
(PID.TID 0000.0001)      3 -----------------------------------------------------------.
(PID.TID 0000.0001)      2 -----------------------------------------------------------.
(PID.TID 0000.0001)      1 -----------------------------------------------------------.
(PID.TID 0000.0001) // =======================================================
(PID.TID 0000.0001) // END OF FIELD                                          =
(PID.TID 0000.0001) // =======================================================
(PID.TID 0000.0001) 
(PID.TID 0000.0001) // =======================================================
(PID.TID 0000.0001) // Field Initial Salinity at iteration          1
(PID.TID 0000.0001) // CMIN =          1.000000000000000E+01
(PID.TID 0000.0001) // CMAX =          1.000000000000000E+01
(PID.TID 0000.0001) // CINT =          0.000000000000000E+00
(PID.TID 0000.0001) // SYMBOLS (CMIN->CMAX): -abcdefghijklmnopqrstuvwxyz+
(PID.TID 0000.0001) //                  0.0: .
(PID.TID 0000.0001) // RANGE I (Lo:Hi:Step):(   1:  60:   1)
(PID.TID 0000.0001) // RANGE J (Lo:Hi:Step):(  60:   1:  -1)
(PID.TID 0000.0001) // RANGE K (Lo:Hi:Step):(   1:   1:   1)
(PID.TID 0000.0001) // =======================================================
(PID.TID 0000.0001) K =   1
(PID.TID 0000.0001)                I=10      I=20      I=30      I=40      I=50      I=60
(PID.TID 0000.0001) |--J--|123456789|123456789|123456789|123456789|123456789|123456789|
(PID.TID 0000.0001)     60 ............................................................
(PID.TID 0000.0001)     59 -----------------------------------------------------------.
(PID.TID 0000.0001)     58 -----------------------------------------------------------.
(PID.TID 0000.0001)     57 -----------------------------------------------------------.
(PID.TID 0000.0001)     56 -----------------------------------------------------------.
(PID.TID 0000.0001)     55 -----------------------------------------------------------.
(PID.TID 0000.0001)     54 -----------------------------------------------------------.
(PID.TID 0000.0001)     53 -----------------------------------------------------------.
(PID.TID 0000.0001)     52 -----------------------------------------------------------.
(PID.TID 0000.0001)     51 -----------------------------------------------------------.
(PID.TID 0000.0001)     50 -----------------------------------------------------------.
(PID.TID 0000.0001)     49 -----------------------------------------------------------.
(PID.TID 0000.0001)     48 -----------------------------------------------------------.
(PID.TID 0000.0001)     47 -----------------------------------------------------------.
(PID.TID 0000.0001)     46 -----------------------------------------------------------.
(PID.TID 0000.0001)     45 -----------------------------------------------------------.
(PID.TID 0000.0001)     44 -----------------------------------------------------------.
(PID.TID 0000.0001)     43 -----------------------------------------------------------.
(PID.TID 0000.0001)     42 -----------------------------------------------------------.
(PID.TID 0000.0001)     41 -----------------------------------------------------------.
(PID.TID 0000.0001)     40 -----------------------------------------------------------.
(PID.TID 0000.0001)     39 -----------------------------------------------------------.
(PID.TID 0000.0001)     38 -----------------------------------------------------------.
(PID.TID 0000.0001)     37 -----------------------------------------------------------.
(PID.TID 0000.0001)     36 -----------------------------------------------------------.
(PID.TID 0000.0001)     35 -----------------------------------------------------------.
(PID.TID 0000.0001)     34 -----------------------------------------------------------.
(PID.TID 0000.0001)     33 -----------------------------------------------------------.
(PID.TID 0000.0001)     32 -----------------------------------------------------------.
(PID.TID 0000.0001)     31 -----------------------------------------------------------.
(PID.TID 0000.0001)     30 -----------------------------------------------------------.
(PID.TID 0000.0001)     29 -----------------------------------------------------------.
(PID.TID 0000.0001)     28 -----------------------------------------------------------.
(PID.TID 0000.0001)     27 -----------------------------------------------------------.
(PID.TID 0000.0001)     26 -----------------------------------------------------------.
(PID.TID 0000.0001)     25 -----------------------------------------------------------.
(PID.TID 0000.0001)     24 -----------------------------------------------------------.
(PID.TID 0000.0001)     23 -----------------------------------------------------------.
(PID.TID 0000.0001)     22 -----------------------------------------------------------.
(PID.TID 0000.0001)     21 -----------------------------------------------------------.
(PID.TID 0000.0001)     20 -----------------------------------------------------------.
(PID.TID 0000.0001)     19 -----------------------------------------------------------.
(PID.TID 0000.0001)     18 -----------------------------------------------------------.
(PID.TID 0000.0001)     17 -----------------------------------------------------------.
(PID.TID 0000.0001)     16 -----------------------------------------------------------.
(PID.TID 0000.0001)     15 -----------------------------------------------------------.
(PID.TID 0000.0001)     14 -----------------------------------------------------------.
(PID.TID 0000.0001)     13 -----------------------------------------------------------.
(PID.TID 0000.0001)     12 -----------------------------------------------------------.
(PID.TID 0000.0001)     11 -----------------------------------------------------------.
(PID.TID 0000.0001)     10 -----------------------------------------------------------.
(PID.TID 0000.0001)      9 -----------------------------------------------------------.
(PID.TID 0000.0001)      8 -----------------------------------------------------------.
(PID.TID 0000.0001)      7 -----------------------------------------------------------.
(PID.TID 0000.0001)      6 -----------------------------------------------------------.
(PID.TID 0000.0001)      5 -----------------------------------------------------------.
(PID.TID 0000.0001)      4 -----------------------------------------------------------.
(PID.TID 0000.0001)      3 -----------------------------------------------------------.
(PID.TID 0000.0001)      2 -----------------------------------------------------------.
(PID.TID 0000.0001)      1 -----------------------------------------------------------.
(PID.TID 0000.0001) // =======================================================
(PID.TID 0000.0001) // END OF FIELD                                          =
(PID.TID 0000.0001) // =======================================================
(PID.TID 0000.0001) 
(PID.TID 0000.0001)  MDSREADFIELD: opening global file: windx.sin_y
(PID.TID 0000.0001) // =======================================================
(PID.TID 0000.0001) // Model current state
(PID.TID 0000.0001) // =======================================================
(PID.TID 0000.0001) 
(PID.TID 0000.0001) // =======================================================
(PID.TID 0000.0001) // Begin MONITOR dynamic field statistics
(PID.TID 0000.0001) // =======================================================
(PID.TID 0000.0001) %MON time_tsnumber                =                     0
(PID.TID 0000.0001) %MON time_secondsf                =   0.0000000000000E+00
(PID.TID 0000.0001) %MON time_secondsi                =                     0
(PID.TID 0000.0001) %MON dynstat_eta_max              =   0.0000000000000E+00
(PID.TID 0000.0001) %MON dynstat_eta_min              =   0.0000000000000E+00
(PID.TID 0000.0001) %MON dynstat_eta_mean             =   0.0000000000000E+00
(PID.TID 0000.0001) %MON dynstat_eta_sd               =   0.0000000000000E+00
(PID.TID 0000.0001) %MON dynstat_eta_del2             =   0.0000000000000E+00
(PID.TID 0000.0001) %MON dynstat_uvel_max             =   0.0000000000000E+00
(PID.TID 0000.0001) %MON dynstat_uvel_min             =   0.0000000000000E+00
(PID.TID 0000.0001) %MON dynstat_uvel_mean            =   0.0000000000000E+00
(PID.TID 0000.0001) %MON dynstat_uvel_sd              =   0.0000000000000E+00
(PID.TID 0000.0001) %MON dynstat_uvel_del2            =   0.0000000000000E+00
(PID.TID 0000.0001) %MON dynstat_vvel_max             =   0.0000000000000E+00
(PID.TID 0000.0001) %MON dynstat_vvel_min             =   0.0000000000000E+00
(PID.TID 0000.0001) %MON dynstat_vvel_mean            =   0.0000000000000E+00
(PID.TID 0000.0001) %MON dynstat_vvel_sd              =   0.0000000000000E+00
(PID.TID 0000.0001) %MON dynstat_vvel_del2            =   0.0000000000000E+00
(PID.TID 0000.0001) %MON dynstat_wvel_max             =   0.0000000000000E+00
(PID.TID 0000.0001) %MON dynstat_wvel_min             =   0.0000000000000E+00
(PID.TID 0000.0001) %MON dynstat_wvel_mean            =   0.0000000000000E+00
(PID.TID 0000.0001) %MON dynstat_wvel_sd              =   0.0000000000000E+00
(PID.TID 0000.0001) %MON dynstat_wvel_del2            =   0.0000000000000E+00
(PID.TID 0000.0001) %MON dynstat_theta_max            =   2.0000000000000E+01
(PID.TID 0000.0001) %MON dynstat_theta_min            =   6.0000000000000E+00
(PID.TID 0000.0001) %MON dynstat_theta_mean           =   1.1000000000001E+01
(PID.TID 0000.0001) %MON dynstat_theta_sd             =   5.3851648071346E+00
(PID.TID 0000.0001) %MON dynstat_theta_del2           =   0.0000000000000E+00
(PID.TID 0000.0001) %MON dynstat_salt_max             =   1.0000000000000E+01
(PID.TID 0000.0001) %MON dynstat_salt_min             =   1.0000000000000E+01
(PID.TID 0000.0001) %MON dynstat_salt_mean            =   1.0000000000001E+01
(PID.TID 0000.0001) %MON dynstat_salt_sd              =   8.7041485130613E-13
(PID.TID 0000.0001) %MON dynstat_salt_del2            =   0.0000000000000E+00
(PID.TID 0000.0001) %MON advcfl_uvel_max              =   0.0000000000000E+00
(PID.TID 0000.0001) %MON advcfl_vvel_max              =   0.0000000000000E+00
(PID.TID 0000.0001) %MON advcfl_wvel_max              =   0.0000000000000E+00
(PID.TID 0000.0001) %MON advcfl_W_hf_max              =   0.0000000000000E+00
(PID.TID 0000.0001) %MON ke_max                       =   0.0000000000000E+00
(PID.TID 0000.0001) %MON ke_mean                      =   0.0000000000000E+00
(PID.TID 0000.0001) %MON ke_volint                    =   0.0000000000000E+00
(PID.TID 0000.0001) %MON ke_volmean                   =   0.0000000000000E+00
(PID.TID 0000.0001) // =======================================================
(PID.TID 0000.0001) // End MONITOR dynamic field statistics
(PID.TID 0000.0001) // =======================================================
 cg2d: Sum(rhs),rhsMax =  -7.76462227847219E-15  4.83916519264620E-03
(PID.TID 0000.0001)                    cg2d_init_res =    7.68114574786861E+00
(PID.TID 0000.0001)                       cg2d_iters =    36
(PID.TID 0000.0001)                         cg2d_res =    5.24380765561225E-14
(PID.TID 0000.0001) // =======================================================
(PID.TID 0000.0001) // Begin MONITOR dynamic field statistics
(PID.TID 0000.0001) // =======================================================
(PID.TID 0000.0001) %MON time_tsnumber                =                     1
(PID.TID 0000.0001) %MON time_secondsf                =   1.2000000000000E+03
(PID.TID 0000.0001) %MON time_secondsi                =                  1200
(PID.TID 0000.0001) %MON dynstat_eta_max              =   6.1668098551454E-04
(PID.TID 0000.0001) %MON dynstat_eta_min              =  -6.1668098551454E-04
(PID.TID 0000.0001) %MON dynstat_eta_mean             =  -5.7078588335881E-21
(PID.TID 0000.0001) %MON dynstat_eta_sd               =   9.6321482938118E-05
(PID.TID 0000.0001) %MON dynstat_eta_del2             =   3.1650506526490E-06
(PID.TID 0000.0001) %MON dynstat_uvel_max             =   2.4004800900926E-04
(PID.TID 0000.0001) %MON dynstat_uvel_min             =  -3.1267513088807E-05
(PID.TID 0000.0001) %MON dynstat_uvel_mean            =   3.7439077456286E-05
(PID.TID 0000.0001) %MON dynstat_uvel_sd              =   7.6696261516134E-05
(PID.TID 0000.0001) %MON dynstat_uvel_del2            =   2.1640325450782E-07
(PID.TID 0000.0001) %MON dynstat_vvel_max             =   3.3424150164443E-06
(PID.TID 0000.0001) %MON dynstat_vvel_min             =  -3.3424150164443E-06
(PID.TID 0000.0001) %MON dynstat_vvel_mean            =  -4.6090691065211E-23
(PID.TID 0000.0001) %MON dynstat_vvel_sd              =   4.9276856728037E-07
(PID.TID 0000.0001) %MON dynstat_vvel_del2            =   1.7428405706674E-08
(PID.TID 0000.0001) %MON dynstat_wvel_max             =   0.0000000000000E+00
(PID.TID 0000.0001) %MON dynstat_wvel_min             =   0.0000000000000E+00
(PID.TID 0000.0001) %MON dynstat_wvel_mean            =   0.0000000000000E+00
(PID.TID 0000.0001) %MON dynstat_wvel_sd              =   0.0000000000000E+00
(PID.TID 0000.0001) %MON dynstat_wvel_del2            =   0.0000000000000E+00
(PID.TID 0000.0001) %MON dynstat_theta_max            =   1.9999520000000E+01
(PID.TID 0000.0001) %MON dynstat_theta_min            =   6.0000960000000E+00
(PID.TID 0000.0001) %MON dynstat_theta_mean           =   1.1000000000001E+01
(PID.TID 0000.0001) %MON dynstat_theta_sd             =   5.3849241495838E+00
(PID.TID 0000.0001) %MON dynstat_theta_del2           =   0.0000000000000E+00
(PID.TID 0000.0001) %MON dynstat_salt_max             =   1.0000000000000E+01
(PID.TID 0000.0001) %MON dynstat_salt_min             =   1.0000000000000E+01
(PID.TID 0000.0001) %MON dynstat_salt_mean            =   1.0000000000001E+01
(PID.TID 0000.0001) %MON dynstat_salt_sd              =   8.7041485130613E-13
(PID.TID 0000.0001) %MON dynstat_salt_del2            =   0.0000000000000E+00
(PID.TID 0000.0001) %MON advcfl_uvel_max              =   2.5910696735100E-06
(PID.TID 0000.0001) %MON advcfl_vvel_max              =   3.6076535100171E-08
(PID.TID 0000.0001) %MON advcfl_wvel_max              =   0.0000000000000E+00
(PID.TID 0000.0001) %MON advcfl_W_hf_max              =   0.0000000000000E+00
(PID.TID 0000.0001) %MON ke_max                       =   2.8811523314656E-08
(PID.TID 0000.0001) %MON ke_mean                      =   3.4842409917447E-09
(PID.TID 0000.0001) %MON ke_volint                    =   2.9465987947052E+08
(PID.TID 0000.0001) %MON ke_volmean                   =   3.5803912318050E-09
(PID.TID 0000.0001) // =======================================================
(PID.TID 0000.0001) // End MONITOR dynamic field statistics
(PID.TID 0000.0001) // =======================================================
 cg2d: Sum(rhs),rhsMax =  -4.53456716620337E-14  9.45171645152804E-03
(PID.TID 0000.0001)                    cg2d_init_res =    4.35584207654812E+00
(PID.TID 0000.0001)                       cg2d_iters =    35
(PID.TID 0000.0001)                         cg2d_res =    8.33023965977304E-14
(PID.TID 0000.0001) // =======================================================
(PID.TID 0000.0001) // Begin MONITOR dynamic field statistics
(PID.TID 0000.0001) // =======================================================
(PID.TID 0000.0001) %MON time_tsnumber                =                     2
(PID.TID 0000.0001) %MON time_secondsf                =   2.4000000000000E+03
(PID.TID 0000.0001) %MON time_secondsi                =                  2400
(PID.TID 0000.0001) %MON dynstat_eta_max              =   1.4256606177737E-03
(PID.TID 0000.0001) %MON dynstat_eta_min              =  -1.4194951677887E-03
(PID.TID 0000.0001) %MON dynstat_eta_mean             =   3.3733697801299E-19
(PID.TID 0000.0001) %MON dynstat_eta_sd               =   2.4854526310215E-04
(PID.TID 0000.0001) %MON dynstat_eta_del2             =   5.1128229493648E-06
(PID.TID 0000.0001) %MON dynstat_uvel_max             =   4.8007752918307E-04
(PID.TID 0000.0001) %MON dynstat_uvel_min             =  -8.2169066502301E-05
(PID.TID 0000.0001) %MON dynstat_uvel_mean            =   7.2894974982508E-05
(PID.TID 0000.0001) %MON dynstat_uvel_sd              =   1.5348019311907E-04
(PID.TID 0000.0001) %MON dynstat_uvel_del2            =   4.2002559761717E-07
(PID.TID 0000.0001) %MON dynstat_vvel_max             =   1.6627736900986E-05
(PID.TID 0000.0001) %MON dynstat_vvel_min             =  -1.6063779592838E-05
(PID.TID 0000.0001) %MON dynstat_vvel_mean            =   8.3687987234511E-08
(PID.TID 0000.0001) %MON dynstat_vvel_sd              =   4.6113599353605E-06
(PID.TID 0000.0001) %MON dynstat_vvel_del2            =   6.0971612979021E-08
(PID.TID 0000.0001) %MON dynstat_wvel_max             =   5.1390082126211E-07
(PID.TID 0000.0001) %MON dynstat_wvel_min             =  -5.1390082126211E-07
(PID.TID 0000.0001) %MON dynstat_wvel_mean            =   1.1414616164721E-25
(PID.TID 0000.0001) %MON dynstat_wvel_sd              =   5.3320166988989E-08
(PID.TID 0000.0001) %MON dynstat_wvel_del2            =   4.6853283138894E-09
(PID.TID 0000.0001) %MON dynstat_theta_max            =   1.9999048212095E+01
(PID.TID 0000.0001) %MON dynstat_theta_min            =   6.0001914495570E+00
(PID.TID 0000.0001) %MON dynstat_theta_mean           =   1.1000000000001E+01
(PID.TID 0000.0001) %MON dynstat_theta_sd             =   5.3846835279952E+00
(PID.TID 0000.0001) %MON dynstat_theta_del2           =   9.2752774143530E-08
(PID.TID 0000.0001) %MON dynstat_salt_max             =   1.0000000000000E+01
(PID.TID 0000.0001) %MON dynstat_salt_min             =   1.0000000000000E+01
(PID.TID 0000.0001) %MON dynstat_salt_mean            =   1.0000000000001E+01
(PID.TID 0000.0001) %MON dynstat_salt_sd              =   8.7041485130613E-13
(PID.TID 0000.0001) %MON dynstat_salt_del2            =   0.0000000000000E+00
(PID.TID 0000.0001) %MON advcfl_uvel_max              =   5.1819397791875E-06
(PID.TID 0000.0001) %MON advcfl_vvel_max              =   1.7947236683462E-07
(PID.TID 0000.0001) %MON advcfl_wvel_max              =   2.4667239420582E-06
(PID.TID 0000.0001) %MON advcfl_W_hf_max              =   2.0366108940654E-06
(PID.TID 0000.0001) %MON ke_max                       =   1.1523755614046E-07
(PID.TID 0000.0001) %MON ke_mean                      =   1.3819570830390E-08
(PID.TID 0000.0001) %MON ke_volint                    =   1.1686954098790E+09
(PID.TID 0000.0001) %MON ke_volmean                   =   1.4200734778350E-08
(PID.TID 0000.0001) // =======================================================
(PID.TID 0000.0001) // End MONITOR dynamic field statistics
(PID.TID 0000.0001) // =======================================================
 cg2d: Sum(rhs),rhsMax =  -4.41896519376428E-13  1.32189633296839E-02
(PID.TID 0000.0001)                    cg2d_init_res =    3.53109173670398E+00
(PID.TID 0000.0001)                       cg2d_iters =    35
(PID.TID 0000.0001)                         cg2d_res =    4.57341398218345E-14
(PID.TID 0000.0001) // =======================================================
(PID.TID 0000.0001) // Begin MONITOR dynamic field statistics
(PID.TID 0000.0001) // =======================================================
(PID.TID 0000.0001) %MON time_tsnumber                =                     3
(PID.TID 0000.0001) %MON time_secondsf                =   3.6000000000000E+03
(PID.TID 0000.0001) %MON time_secondsi                =                  3600
(PID.TID 0000.0001) %MON dynstat_eta_max              =   2.2733056512629E-03
(PID.TID 0000.0001) %MON dynstat_eta_min              =  -2.2512376766924E-03
(PID.TID 0000.0001) %MON dynstat_eta_mean             =   4.3890116147613E-19
(PID.TID 0000.0001) %MON dynstat_eta_sd               =   4.4066745087068E-04
(PID.TID 0000.0001) %MON dynstat_eta_del2             =   5.8390592609177E-06
(PID.TID 0000.0001) %MON dynstat_uvel_max             =   7.2009398189455E-04
(PID.TID 0000.0001) %MON dynstat_uvel_min             =  -1.4008009550506E-04
(PID.TID 0000.0001) %MON dynstat_uvel_mean            =   1.0614637122798E-04
(PID.TID 0000.0001) %MON dynstat_uvel_sd              =   2.3018664849088E-04
(PID.TID 0000.0001) %MON dynstat_uvel_del2            =   5.4772098313711E-07
(PID.TID 0000.0001) %MON dynstat_vvel_max             =   4.1085450796274E-05
(PID.TID 0000.0001) %MON dynstat_vvel_min             =  -3.9583609633627E-05
(PID.TID 0000.0001) %MON dynstat_vvel_mean            =   2.1416766143641E-07
(PID.TID 0000.0001) %MON dynstat_vvel_sd              =   1.1778714750802E-05
(PID.TID 0000.0001) %MON dynstat_vvel_del2            =   1.3055831260372E-07
(PID.TID 0000.0001) %MON dynstat_wvel_max             =   1.1155692307409E-06
(PID.TID 0000.0001) %MON dynstat_wvel_min             =  -1.1156602355337E-06
(PID.TID 0000.0001) %MON dynstat_wvel_mean            =   8.4742452510766E-25
(PID.TID 0000.0001) %MON dynstat_wvel_sd              =   1.2107648003496E-07
(PID.TID 0000.0001) %MON dynstat_wvel_del2            =   9.4491840129562E-09
(PID.TID 0000.0001) %MON dynstat_theta_max            =   1.9998586681526E+01
(PID.TID 0000.0001) %MON dynstat_theta_min            =   6.0002862133569E+00
(PID.TID 0000.0001) %MON dynstat_theta_mean           =   1.1000000000001E+01
(PID.TID 0000.0001) %MON dynstat_theta_sd             =   5.3844429315798E+00
(PID.TID 0000.0001) %MON dynstat_theta_del2           =   2.6568646438010E-07
(PID.TID 0000.0001) %MON dynstat_salt_max             =   1.0000000000000E+01
(PID.TID 0000.0001) %MON dynstat_salt_min             =   1.0000000000000E+01
(PID.TID 0000.0001) %MON dynstat_salt_mean            =   1.0000000000001E+01
(PID.TID 0000.0001) %MON dynstat_salt_sd              =   8.7041485130613E-13
(PID.TID 0000.0001) %MON dynstat_salt_del2            =   0.0000000000000E+00
(PID.TID 0000.0001) %MON advcfl_uvel_max              =   7.7726688351414E-06
(PID.TID 0000.0001) %MON advcfl_vvel_max              =   4.4345800879477E-07
(PID.TID 0000.0001) %MON advcfl_wvel_max              =   3.2359185290365E-06
(PID.TID 0000.0001) %MON advcfl_W_hf_max              =   5.3551691305620E-06
(PID.TID 0000.0001) %MON ke_max                       =   2.5926999475382E-07
(PID.TID 0000.0001) %MON ke_mean                      =   3.0800443182644E-08
(PID.TID 0000.0001) %MON ke_volint                    =   2.6047615757575E+09
(PID.TID 0000.0001) %MON ke_volmean                   =   3.1650272590699E-08
(PID.TID 0000.0001) // =======================================================
(PID.TID 0000.0001) // End MONITOR dynamic field statistics
(PID.TID 0000.0001) // =======================================================
 cg2d: Sum(rhs),rhsMax =  -4.01484401280072E-13  1.65747327436808E-02
(PID.TID 0000.0001)                    cg2d_init_res =    3.19572288822203E+00
(PID.TID 0000.0001)                       cg2d_iters =    34
(PID.TID 0000.0001)                         cg2d_res =    8.45290863493792E-14
(PID.TID 0000.0001) // =======================================================
(PID.TID 0000.0001) // Begin MONITOR dynamic field statistics
(PID.TID 0000.0001) // =======================================================
(PID.TID 0000.0001) %MON time_tsnumber                =                     4
(PID.TID 0000.0001) %MON time_secondsf                =   4.8000000000000E+03
(PID.TID 0000.0001) %MON time_secondsi                =                  4800
(PID.TID 0000.0001) %MON dynstat_eta_max              =   3.1229584398751E-03
(PID.TID 0000.0001) %MON dynstat_eta_min              =  -3.0719884264775E-03
(PID.TID 0000.0001) %MON dynstat_eta_mean             =   4.7542689975134E-19
(PID.TID 0000.0001) %MON dynstat_eta_sd               =   6.6494908654466E-04
(PID.TID 0000.0001) %MON dynstat_eta_del2             =   6.0676670542566E-06
(PID.TID 0000.0001) %MON dynstat_uvel_max             =   9.6009649938024E-04
(PID.TID 0000.0001) %MON dynstat_uvel_min             =  -1.9963826597826E-04
(PID.TID 0000.0001) %MON dynstat_uvel_mean            =   1.3716943348934E-04
(PID.TID 0000.0001) %MON dynstat_uvel_sd              =   3.0673830663045E-04
(PID.TID 0000.0001) %MON dynstat_uvel_del2            =   6.2498100432659E-07
(PID.TID 0000.0001) %MON dynstat_vvel_max             =   7.4703290163262E-05
(PID.TID 0000.0001) %MON dynstat_vvel_min             =  -7.1995821502802E-05
(PID.TID 0000.0001) %MON dynstat_vvel_mean            =   3.8657699618275E-07
(PID.TID 0000.0001) %MON dynstat_vvel_sd              =   2.1614902635351E-05
(PID.TID 0000.0001) %MON dynstat_vvel_del2            =   2.2051274683654E-07
(PID.TID 0000.0001) %MON dynstat_wvel_max             =   1.9027012420685E-06
(PID.TID 0000.0001) %MON dynstat_wvel_min             =  -1.9031187850657E-06
(PID.TID 0000.0001) %MON dynstat_wvel_mean            =   8.5358111217579E-24
(PID.TID 0000.0001) %MON dynstat_wvel_sd              =   1.9432661327397E-07
(PID.TID 0000.0001) %MON dynstat_wvel_del2            =   1.4050344687249E-08
(PID.TID 0000.0001) %MON dynstat_theta_max            =   1.9998135327922E+01
(PID.TID 0000.0001) %MON dynstat_theta_min            =   6.0003802980073E+00
(PID.TID 0000.0001) %MON dynstat_theta_mean           =   1.1000000000000E+01
(PID.TID 0000.0001) %MON dynstat_theta_sd             =   5.3842023603336E+00
(PID.TID 0000.0001) %MON dynstat_theta_del2           =   5.0199029641873E-07
(PID.TID 0000.0001) %MON dynstat_salt_max             =   1.0000000000000E+01
(PID.TID 0000.0001) %MON dynstat_salt_min             =   1.0000000000000E+01
(PID.TID 0000.0001) %MON dynstat_salt_mean            =   1.0000000000001E+01
(PID.TID 0000.0001) %MON dynstat_salt_sd              =   8.7041485130613E-13
(PID.TID 0000.0001) %MON dynstat_salt_del2            =   0.0000000000000E+00
(PID.TID 0000.0001) %MON advcfl_uvel_max              =   1.0363247474764E-05
(PID.TID 0000.0001) %MON advcfl_vvel_max              =   8.0631395455499E-07
(PID.TID 0000.0001) %MON advcfl_wvel_max              =   4.5674850841576E-06
(PID.TID 0000.0001) %MON advcfl_W_hf_max              =   9.1349701683152E-06
(PID.TID 0000.0001) %MON ke_max                       =   4.6090060060763E-07
(PID.TID 0000.0001) %MON ke_mean                      =   5.4228155799775E-08
(PID.TID 0000.0001) %MON ke_volint                    =   4.5860826263370E+09
(PID.TID 0000.0001) %MON ke_volmean                   =   5.5725163714773E-08
(PID.TID 0000.0001) // =======================================================
(PID.TID 0000.0001) // End MONITOR dynamic field statistics
(PID.TID 0000.0001) // =======================================================
 cg2d: Sum(rhs),rhsMax =  -3.25350857366402E-13  1.98147193825106E-02
(PID.TID 0000.0001)                    cg2d_init_res =    2.97060949031608E+00
(PID.TID 0000.0001)                       cg2d_iters =    34
(PID.TID 0000.0001)                         cg2d_res =    8.05894423538783E-14
(PID.TID 0000.0001) // =======================================================
(PID.TID 0000.0001) // Begin MONITOR dynamic field statistics
(PID.TID 0000.0001) // =======================================================
(PID.TID 0000.0001) %MON time_tsnumber                =                     5
(PID.TID 0000.0001) %MON time_secondsf                =   6.0000000000000E+03
(PID.TID 0000.0001) %MON time_secondsi                =                  6000
(PID.TID 0000.0001) %MON dynstat_eta_max              =   3.9689043874330E-03
(PID.TID 0000.0001) %MON dynstat_eta_min              =  -3.8731529166815E-03
(PID.TID 0000.0001) %MON dynstat_eta_mean             =   4.7856485646374E-19
(PID.TID 0000.0001) %MON dynstat_eta_sd               =   9.1658303836465E-04
(PID.TID 0000.0001) %MON dynstat_eta_del2             =   6.1830442513387E-06
(PID.TID 0000.0001) %MON dynstat_uvel_max             =   1.2000822752351E-03
(PID.TID 0000.0001) %MON dynstat_uvel_min             =  -2.5938702076830E-04
(PID.TID 0000.0001) %MON dynstat_uvel_mean            =   1.6594022364759E-04
(PID.TID 0000.0001) %MON dynstat_uvel_sd              =   3.8302874124203E-04
(PID.TID 0000.0001) %MON dynstat_uvel_del2            =   6.8311561150912E-07
(PID.TID 0000.0001) %MON dynstat_vvel_max             =   1.1727446032356E-04
(PID.TID 0000.0001) %MON dynstat_vvel_min             =  -1.1307359470066E-04
(PID.TID 0000.0001) %MON dynstat_vvel_mean            =   5.9613970305539E-07
(PID.TID 0000.0001) %MON dynstat_vvel_sd              =   3.4034379152387E-05
(PID.TID 0000.0001) %MON dynstat_vvel_del2            =   3.2799479489842E-07
(PID.TID 0000.0001) %MON dynstat_wvel_max             =   2.7116848279172E-06
(PID.TID 0000.0001) %MON dynstat_wvel_min             =  -2.7128594958328E-06
(PID.TID 0000.0001) %MON dynstat_wvel_mean            =   1.3416999614630E-23
(PID.TID 0000.0001) %MON dynstat_wvel_sd              =   2.6785344333925E-07
(PID.TID 0000.0001) %MON dynstat_wvel_del2            =   1.8494922253878E-08
(PID.TID 0000.0001) %MON dynstat_theta_max            =   1.9997693885091E+01
(PID.TID 0000.0001) %MON dynstat_theta_min            =   6.0004737229861E+00
(PID.TID 0000.0001) %MON dynstat_theta_mean           =   1.1000000000000E+01
(PID.TID 0000.0001) %MON dynstat_theta_sd             =   5.3839618142519E+00
(PID.TID 0000.0001) %MON dynstat_theta_del2           =   7.9836935019612E-07
(PID.TID 0000.0001) %MON dynstat_salt_max             =   1.0000000000000E+01
(PID.TID 0000.0001) %MON dynstat_salt_min             =   1.0000000000000E+01
(PID.TID 0000.0001) %MON dynstat_salt_mean            =   1.0000000000001E+01
(PID.TID 0000.0001) %MON dynstat_salt_sd              =   8.7041485130613E-13
(PID.TID 0000.0001) %MON dynstat_salt_del2            =   0.0000000000000E+00
(PID.TID 0000.0001) %MON advcfl_uvel_max              =   1.2953645405818E-05
(PID.TID 0000.0001) %MON advcfl_vvel_max              =   1.2658081547029E-06
(PID.TID 0000.0001) %MON advcfl_wvel_max              =   6.5108627899987E-06
(PID.TID 0000.0001) %MON advcfl_W_hf_max              =   1.3021725579997E-05
(PID.TID 0000.0001) %MON ke_max                       =   7.2011866672305E-07
(PID.TID 0000.0001) %MON ke_mean                      =   8.3899672946000E-08
(PID.TID 0000.0001) %MON ke_volint                    =   7.0955302897453E+09
(PID.TID 0000.0001) %MON ke_volmean                   =   8.6217283737648E-08
(PID.TID 0000.0001) // =======================================================
(PID.TID 0000.0001) // End MONITOR dynamic field statistics
(PID.TID 0000.0001) // =======================================================
 cg2d: Sum(rhs),rhsMax =  -7.62070961890515E-13  2.30325685886120E-02
(PID.TID 0000.0001)                    cg2d_init_res =    2.79037195962464E+00
(PID.TID 0000.0001)                       cg2d_iters =    34
(PID.TID 0000.0001)                         cg2d_res =    7.85360827212290E-14
(PID.TID 0000.0001) // =======================================================
(PID.TID 0000.0001) // Begin MONITOR dynamic field statistics
(PID.TID 0000.0001) // =======================================================
(PID.TID 0000.0001) %MON time_tsnumber                =                     6
(PID.TID 0000.0001) %MON time_secondsf                =   7.2000000000000E+03
(PID.TID 0000.0001) %MON time_secondsi                =                  7200
(PID.TID 0000.0001) %MON dynstat_eta_max              =   4.8099671920873E-03
(PID.TID 0000.0001) %MON dynstat_eta_min              =  -4.6511236345122E-03
(PID.TID 0000.0001) %MON dynstat_eta_mean             =   1.2161938568490E-18
(PID.TID 0000.0001) %MON dynstat_eta_sd               =   1.1921773756320E-03
(PID.TID 0000.0001) %MON dynstat_eta_del2             =   6.3125989998657E-06
(PID.TID 0000.0001) %MON dynstat_uvel_max             =   1.4400428767993E-03
(PID.TID 0000.0001) %MON dynstat_uvel_min             =  -3.1911019361355E-04
(PID.TID 0000.0001) %MON dynstat_uvel_mean            =   1.9244393420246E-04
(PID.TID 0000.0001) %MON dynstat_uvel_sd              =   4.5895260004787E-04
(PID.TID 0000.0001) %MON dynstat_uvel_del2            =   7.4165040499923E-07
(PID.TID 0000.0001) %MON dynstat_vvel_max             =   1.6844126876038E-04
(PID.TID 0000.0001) %MON dynstat_vvel_min             =  -1.6247067286936E-04
(PID.TID 0000.0001) %MON dynstat_vvel_mean            =   8.3779375649119E-07
(PID.TID 0000.0001) %MON dynstat_vvel_sd              =   4.8944965425414E-05
(PID.TID 0000.0001) %MON dynstat_vvel_del2            =   4.5321267731551E-07
(PID.TID 0000.0001) %MON dynstat_wvel_max             =   3.5224125054488E-06
(PID.TID 0000.0001) %MON dynstat_wvel_min             =  -3.5250156734924E-06
(PID.TID 0000.0001) %MON dynstat_wvel_mean            =  -3.1120807593322E-23
(PID.TID 0000.0001) %MON dynstat_wvel_sd              =   3.4051813908924E-07
(PID.TID 0000.0001) %MON dynstat_wvel_del2            =   2.2828995778542E-08
(PID.TID 0000.0001) %MON dynstat_theta_max            =   1.9997262236867E+01
(PID.TID 0000.0001) %MON dynstat_theta_min            =   6.0005664982564E+00
(PID.TID 0000.0001) %MON dynstat_theta_mean           =   1.1000000000000E+01
(PID.TID 0000.0001) %MON dynstat_theta_sd             =   5.3837212933298E+00
(PID.TID 0000.0001) %MON dynstat_theta_del2           =   1.1571023761179E-06
(PID.TID 0000.0001) %MON dynstat_salt_max             =   1.0000000000000E+01
(PID.TID 0000.0001) %MON dynstat_salt_min             =   1.0000000000000E+01
(PID.TID 0000.0001) %MON dynstat_salt_mean            =   1.0000000000001E+01
(PID.TID 0000.0001) %MON dynstat_salt_sd              =   8.7041485130613E-13
(PID.TID 0000.0001) %MON dynstat_salt_del2            =   0.0000000000000E+00
(PID.TID 0000.0001) %MON advcfl_uvel_max              =   1.5543771606474E-05
(PID.TID 0000.0001) %MON advcfl_vvel_max              =   1.8180798359432E-06
(PID.TID 0000.0001) %MON advcfl_wvel_max              =   8.4600376163818E-06
(PID.TID 0000.0001) %MON advcfl_W_hf_max              =   1.6920075232764E-05
(PID.TID 0000.0001) %MON ke_max                       =   1.0369032793505E-06
(PID.TID 0000.0001) %MON ke_mean                      =   1.1961011846017E-07
(PID.TID 0000.0001) %MON ke_volint                    =   1.0115831315713E+10
(PID.TID 0000.0001) %MON ke_volmean                   =   1.2291674662421E-07
(PID.TID 0000.0001) // =======================================================
(PID.TID 0000.0001) // End MONITOR dynamic field statistics
(PID.TID 0000.0001) // =======================================================
 cg2d: Sum(rhs),rhsMax =  -5.61800606035945E-13  2.62410272856625E-02
(PID.TID 0000.0001)                    cg2d_init_res =    2.63854681900191E+00
(PID.TID 0000.0001)                       cg2d_iters =    34
(PID.TID 0000.0001)                         cg2d_res =    7.41263731850533E-14
(PID.TID 0000.0001) // =======================================================
(PID.TID 0000.0001) // Begin MONITOR dynamic field statistics
(PID.TID 0000.0001) // =======================================================
(PID.TID 0000.0001) %MON time_tsnumber                =                     7
(PID.TID 0000.0001) %MON time_secondsf                =   8.4000000000000E+03
(PID.TID 0000.0001) %MON time_secondsi                =                  8400
(PID.TID 0000.0001) %MON dynstat_eta_max              =   5.6447959474713E-03
(PID.TID 0000.0001) %MON dynstat_eta_min              =  -5.4026248735656E-03
(PID.TID 0000.0001) %MON dynstat_eta_mean             =   1.0817430740673E-18
(PID.TID 0000.0001) %MON dynstat_eta_sd               =   1.4891728305580E-03
(PID.TID 0000.0001) %MON dynstat_eta_del2             =   6.5006856178992E-06
(PID.TID 0000.0001) %MON dynstat_uvel_max             =   1.6799548391739E-03
(PID.TID 0000.0001) %MON dynstat_uvel_min             =  -3.7880920534653E-04
(PID.TID 0000.0001) %MON dynstat_uvel_mean            =   2.1667522234345E-04
(PID.TID 0000.0001) %MON dynstat_uvel_sd              =   5.3440660642402E-04
(PID.TID 0000.0001) %MON dynstat_uvel_del2            =   8.0018489767627E-07
(PID.TID 0000.0001) %MON dynstat_vvel_max             =   2.2771668519938E-04
(PID.TID 0000.0001) %MON dynstat_vvel_min             =  -2.1971555236553E-04
(PID.TID 0000.0001) %MON dynstat_vvel_mean            =   1.1062953310860E-06
(PID.TID 0000.0001) %MON dynstat_vvel_sd              =   6.6247876390555E-05
(PID.TID 0000.0001) %MON dynstat_vvel_del2            =   5.9895635214939E-07
(PID.TID 0000.0001) %MON dynstat_wvel_max             =   4.3312567927179E-06
(PID.TID 0000.0001) %MON dynstat_wvel_min             =  -4.3362419321432E-06
(PID.TID 0000.0001) %MON dynstat_wvel_mean            =  -2.3362012915931E-23
(PID.TID 0000.0001) %MON dynstat_wvel_sd              =   4.1227355791257E-07
(PID.TID 0000.0001) %MON dynstat_wvel_del2            =   2.7100103184760E-08
(PID.TID 0000.0001) %MON dynstat_theta_max            =   1.9996840345852E+01
(PID.TID 0000.0001) %MON dynstat_theta_min            =   6.0006586290929E+00
(PID.TID 0000.0001) %MON dynstat_theta_mean           =   1.1000000000000E+01
(PID.TID 0000.0001) %MON dynstat_theta_sd             =   5.3834807975627E+00
(PID.TID 0000.0001) %MON dynstat_theta_del2           =   1.5772289627725E-06
(PID.TID 0000.0001) %MON dynstat_salt_max             =   1.0000000000000E+01
(PID.TID 0000.0001) %MON dynstat_salt_min             =   1.0000000000000E+01
(PID.TID 0000.0001) %MON dynstat_salt_mean            =   1.0000000000001E+01
(PID.TID 0000.0001) %MON dynstat_salt_sd              =   8.7041485130613E-13
(PID.TID 0000.0001) %MON dynstat_salt_del2            =   0.0000000000000E+00
(PID.TID 0000.0001) %MON advcfl_uvel_max              =   1.8133372797447E-05
(PID.TID 0000.0001) %MON advcfl_vvel_max              =   2.4578722109828E-06
(PID.TID 0000.0001) %MON advcfl_wvel_max              =   1.0406980637144E-05
(PID.TID 0000.0001) %MON advcfl_W_hf_max              =   2.0813961274287E-05
(PID.TID 0000.0001) %MON ke_max                       =   1.4112005431039E-06
(PID.TID 0000.0001) %MON ke_mean                      =   1.6115300010250E-07
(PID.TID 0000.0001) %MON ke_volint                    =   1.3629587142574E+10
(PID.TID 0000.0001) %MON ke_volmean                   =   1.6561214368948E-07
(PID.TID 0000.0001) // =======================================================
(PID.TID 0000.0001) // End MONITOR dynamic field statistics
(PID.TID 0000.0001) // =======================================================
 cg2d: Sum(rhs),rhsMax =  -4.43534098337750E-13  2.94344241278202E-02
(PID.TID 0000.0001)                    cg2d_init_res =    2.50812039301407E+00
(PID.TID 0000.0001)                       cg2d_iters =    34
(PID.TID 0000.0001)                         cg2d_res =    6.58469786169418E-14
(PID.TID 0000.0001) // =======================================================
(PID.TID 0000.0001) // Begin MONITOR dynamic field statistics
(PID.TID 0000.0001) // =======================================================
(PID.TID 0000.0001) %MON time_tsnumber                =                     8
(PID.TID 0000.0001) %MON time_secondsf                =   9.6000000000000E+03
(PID.TID 0000.0001) %MON time_secondsi                =                  9600
(PID.TID 0000.0001) %MON dynstat_eta_max              =   6.4716658872754E-03
(PID.TID 0000.0001) %MON dynstat_eta_min              =  -6.1245619618112E-03
(PID.TID 0000.0001) %MON dynstat_eta_mean             =   2.2106876068751E-18
(PID.TID 0000.0001) %MON dynstat_eta_sd               =   1.8055447949071E-03
(PID.TID 0000.0001) %MON dynstat_eta_del2             =   6.7349542541215E-06
(PID.TID 0000.0001) %MON dynstat_uvel_max             =   1.9197606593765E-03
(PID.TID 0000.0001) %MON dynstat_uvel_min             =  -4.3849402254604E-04
(PID.TID 0000.0001) %MON dynstat_uvel_mean            =   2.3863827411797E-04
(PID.TID 0000.0001) %MON dynstat_uvel_sd              =   6.0929009600047E-04
(PID.TID 0000.0001) %MON dynstat_uvel_del2            =   8.6127039889553E-07
(PID.TID 0000.0001) %MON dynstat_vvel_max             =   2.9451055278828E-04
(PID.TID 0000.0001) %MON dynstat_vvel_min             =  -2.8423668697796E-04
(PID.TID 0000.0001) %MON dynstat_vvel_mean            =   1.3962864364488E-06
(PID.TID 0000.0001) %MON dynstat_vvel_sd              =   8.5840952987201E-05
(PID.TID 0000.0001) %MON dynstat_vvel_del2            =   7.6563088536550E-07
(PID.TID 0000.0001) %MON dynstat_wvel_max             =   5.1374893929359E-06
(PID.TID 0000.0001) %MON dynstat_wvel_min             =  -5.1461281013349E-06
(PID.TID 0000.0001) %MON dynstat_wvel_mean            =   3.0900345517753E-24
(PID.TID 0000.0001) %MON dynstat_wvel_sd              =   4.8315991671928E-07
(PID.TID 0000.0001) %MON dynstat_wvel_del2            =   3.1309447996908E-08
(PID.TID 0000.0001) %MON dynstat_theta_max            =   1.9996428190834E+01
(PID.TID 0000.0001) %MON dynstat_theta_min            =   6.0007501202979E+00
(PID.TID 0000.0001) %MON dynstat_theta_mean           =   1.1000000000000E+01
(PID.TID 0000.0001) %MON dynstat_theta_sd             =   5.3832403269459E+00
(PID.TID 0000.0001) %MON dynstat_theta_del2           =   2.0583032799508E-06
(PID.TID 0000.0001) %MON dynstat_salt_max             =   1.0000000000000E+01
(PID.TID 0000.0001) %MON dynstat_salt_min             =   1.0000000000000E+01
(PID.TID 0000.0001) %MON dynstat_salt_mean            =   1.0000000000001E+01
(PID.TID 0000.0001) %MON dynstat_salt_sd              =   8.7041485130613E-13
(PID.TID 0000.0001) %MON dynstat_salt_del2            =   0.0000000000000E+00
(PID.TID 0000.0001) %MON advcfl_uvel_max              =   2.0721828293589E-05
(PID.TID 0000.0001) %MON advcfl_vvel_max              =   3.1788153902982E-06
(PID.TID 0000.0001) %MON advcfl_wvel_max              =   1.2350707443204E-05
(PID.TID 0000.0001) %MON advcfl_W_hf_max              =   2.4701414886408E-05
(PID.TID 0000.0001) %MON ke_max                       =   1.8428685568298E-06
(PID.TID 0000.0001) %MON ke_mean                      =   2.0832050304243E-07
(PID.TID 0000.0001) %MON ke_volint                    =   1.7619298729489E+10
(PID.TID 0000.0001) %MON ke_volmean                   =   2.1409084533318E-07
(PID.TID 0000.0001) // =======================================================
(PID.TID 0000.0001) // End MONITOR dynamic field statistics
(PID.TID 0000.0001) // =======================================================
 cg2d: Sum(rhs),rhsMax =  -3.46056516775661E-13  3.26047866110087E-02
(PID.TID 0000.0001)                    cg2d_init_res =    2.39458311904634E+00
(PID.TID 0000.0001)                       cg2d_iters =    34
(PID.TID 0000.0001)                         cg2d_res =    6.49334884306746E-14
(PID.TID 0000.0001) // =======================================================
(PID.TID 0000.0001) // Begin MONITOR dynamic field statistics
(PID.TID 0000.0001) // =======================================================
(PID.TID 0000.0001) %MON time_tsnumber                =                     9
(PID.TID 0000.0001) %MON time_secondsf                =   1.0800000000000E+04
(PID.TID 0000.0001) %MON time_secondsi                =                 10800
(PID.TID 0000.0001) %MON dynstat_eta_max              =   7.2886262325440E-03
(PID.TID 0000.0001) %MON dynstat_eta_min              =  -6.8142080743082E-03
(PID.TID 0000.0001) %MON dynstat_eta_mean             =   9.9581842919765E-19
(PID.TID 0000.0001) %MON dynstat_eta_sd               =   2.1396227419394E-03
(PID.TID 0000.0001) %MON dynstat_eta_del2             =   7.0026472643756E-06
(PID.TID 0000.0001) %MON dynstat_uvel_max             =   2.1593364055549E-03
(PID.TID 0000.0001) %MON dynstat_uvel_min             =  -4.9816774054257E-04
(PID.TID 0000.0001) %MON dynstat_uvel_mean            =   2.5834631050282E-04
(PID.TID 0000.0001) %MON dynstat_uvel_sd              =   6.8350559105109E-04
(PID.TID 0000.0001) %MON dynstat_uvel_del2            =   9.2559441014486E-07
(PID.TID 0000.0001) %MON dynstat_vvel_max             =   3.6835963749384E-04
(PID.TID 0000.0001) %MON dynstat_vvel_min             =  -3.5539760797015E-04
(PID.TID 0000.0001) %MON dynstat_vvel_mean            =   1.7023600101687E-06
(PID.TID 0000.0001) %MON dynstat_vvel_sd              =   1.0762189740894E-04
(PID.TID 0000.0001) %MON dynstat_vvel_del2            =   9.5178217513389E-07
(PID.TID 0000.0001) %MON dynstat_wvel_max             =   5.9404740042865E-06
(PID.TID 0000.0001) %MON dynstat_wvel_min             =  -5.9543862574356E-06
(PID.TID 0000.0001) %MON dynstat_wvel_mean            =   2.0646209674670E-23
(PID.TID 0000.0001) %MON dynstat_wvel_sd              =   5.5316117518707E-07
(PID.TID 0000.0001) %MON dynstat_wvel_del2            =   3.5440608209828E-08
(PID.TID 0000.0001) %MON dynstat_theta_max            =   1.9996025748006E+01
(PID.TID 0000.0001) %MON dynstat_theta_min            =   6.0008409774719E+00
(PID.TID 0000.0001) %MON dynstat_theta_mean           =   1.1000000000000E+01
(PID.TID 0000.0001) %MON dynstat_theta_sd             =   5.3829998814747E+00
(PID.TID 0000.0001) %MON dynstat_theta_del2           =   2.5991663944966E-06
(PID.TID 0000.0001) %MON dynstat_salt_max             =   1.0000000000000E+01
(PID.TID 0000.0001) %MON dynstat_salt_min             =   1.0000000000000E+01
(PID.TID 0000.0001) %MON dynstat_salt_mean            =   1.0000000000001E+01
(PID.TID 0000.0001) %MON dynstat_salt_sd              =   8.7041485130613E-13
(PID.TID 0000.0001) %MON dynstat_salt_del2            =   0.0000000000000E+00
(PID.TID 0000.0001) %MON advcfl_uvel_max              =   2.3307800378897E-05
(PID.TID 0000.0001) %MON advcfl_vvel_max              =   3.9759094325964E-06
(PID.TID 0000.0001) %MON advcfl_wvel_max              =   1.4290527017845E-05
(PID.TID 0000.0001) %MON advcfl_W_hf_max              =   2.8581054035691E-05
(PID.TID 0000.0001) %MON ke_max                       =   2.3315656158842E-06
(PID.TID 0000.0001) %MON ke_mean                      =   2.6090397507373E-07
(PID.TID 0000.0001) %MON ke_volint                    =   2.2067406516251E+10
(PID.TID 0000.0001) %MON ke_volmean                   =   2.6813948658852E-07
(PID.TID 0000.0001) // =======================================================
(PID.TID 0000.0001) // End MONITOR dynamic field statistics
(PID.TID 0000.0001) // =======================================================
 cg2d: Sum(rhs),rhsMax =  -8.67805827198254E-13  3.57437944257850E-02
(PID.TID 0000.0001)                    cg2d_init_res =    2.29458379412182E+00
(PID.TID 0000.0001)                       cg2d_iters =    34
(PID.TID 0000.0001)                         cg2d_res =    6.09101195922691E-14
(PID.TID 0000.0001) // =======================================================
(PID.TID 0000.0001) // Begin MONITOR dynamic field statistics
(PID.TID 0000.0001) // =======================================================
(PID.TID 0000.0001) %MON time_tsnumber                =                    10
(PID.TID 0000.0001) %MON time_secondsf                =   1.2000000000000E+04
(PID.TID 0000.0001) %MON time_secondsi                =                 12000
(PID.TID 0000.0001) %MON dynstat_eta_max              =   8.0935679436707E-03
(PID.TID 0000.0001) %MON dynstat_eta_min              =  -7.4693017010648E-03
(PID.TID 0000.0001) %MON dynstat_eta_mean             =   1.9356254423529E-18
(PID.TID 0000.0001) %MON dynstat_eta_sd               =   2.4899690520270E-03
(PID.TID 0000.0001) %MON dynstat_eta_del2             =   7.2986196845846E-06
(PID.TID 0000.0001) %MON dynstat_uvel_max             =   2.3984452618876E-03
(PID.TID 0000.0001) %MON dynstat_uvel_min             =  -5.5783147576800E-04
(PID.TID 0000.0001) %MON dynstat_uvel_mean            =   2.7582081100815E-04
(PID.TID 0000.0001) %MON dynstat_uvel_sd              =   7.5695931882660E-04
(PID.TID 0000.0001) %MON dynstat_uvel_del2            =   9.9392232380884E-07
(PID.TID 0000.0001) %MON dynstat_vvel_max             =   4.4900386927362E-04
(PID.TID 0000.0001) %MON dynstat_vvel_min             =  -4.3253676114825E-04
(PID.TID 0000.0001) %MON dynstat_vvel_mean            =   2.0191215004803E-06
(PID.TID 0000.0001) %MON dynstat_vvel_sd              =   1.3149093346796E-04
(PID.TID 0000.0001) %MON dynstat_vvel_del2            =   1.1567837493505E-06
(PID.TID 0000.0001) %MON dynstat_wvel_max             =   6.7394621697260E-06
(PID.TID 0000.0001) %MON dynstat_wvel_min             =  -6.7606406168056E-06
(PID.TID 0000.0001) %MON dynstat_wvel_mean            =   3.3369645701943E-23
(PID.TID 0000.0001) %MON dynstat_wvel_sd              =   6.2222855756475E-07
(PID.TID 0000.0001) %MON dynstat_wvel_del2            =   3.9479790974364E-08
(PID.TID 0000.0001) %MON dynstat_theta_max            =   1.9995632988406E+01
(PID.TID 0000.0001) %MON dynstat_theta_min            =   6.0009312071946E+00
(PID.TID 0000.0001) %MON dynstat_theta_mean           =   1.0999999999999E+01
(PID.TID 0000.0001) %MON dynstat_theta_sd             =   5.3827594611443E+00
(PID.TID 0000.0001) %MON dynstat_theta_del2           =   3.1985121343925E-06
(PID.TID 0000.0001) %MON dynstat_salt_max             =   1.0000000000000E+01
(PID.TID 0000.0001) %MON dynstat_salt_min             =   1.0000000000000E+01
(PID.TID 0000.0001) %MON dynstat_salt_mean            =   1.0000000000001E+01
(PID.TID 0000.0001) %MON dynstat_salt_sd              =   8.7041485130613E-13
(PID.TID 0000.0001) %MON dynstat_salt_del2            =   0.0000000000000E+00
(PID.TID 0000.0001) %MON advcfl_uvel_max              =   2.5888732871811E-05
(PID.TID 0000.0001) %MON advcfl_vvel_max              =   4.8463472579759E-06
(PID.TID 0000.0001) %MON advcfl_wvel_max              =   1.6225537480333E-05
(PID.TID 0000.0001) %MON advcfl_W_hf_max              =   3.2451074960667E-05
(PID.TID 0000.0001) %MON ke_max                       =   2.8765574097587E-06
(PID.TID 0000.0001) %MON ke_mean                      =   3.1869463013864E-07
(PID.TID 0000.0001) %MON ke_volint                    =   2.6956347797504E+10
(PID.TID 0000.0001) %MON ke_volmean                   =   3.2754466427223E-07
(PID.TID 0000.0001) // =======================================================
(PID.TID 0000.0001) // End MONITOR dynamic field statistics
(PID.TID 0000.0001) // =======================================================
(PID.TID 0000.0001)   Seconds in section "ALL                [THE_MODEL_MAIN]":
(PID.TID 0000.0001)           User time:  5.10000013
(PID.TID 0000.0001)         System time:  0.209999993
(PID.TID 0000.0001)     Wall clock time:  5.33307898
(PID.TID 0000.0001)          No. starts: 1
(PID.TID 0000.0001)           No. stops: 1
(PID.TID 0000.0001)   Seconds in section "INITIALISE_FIXED   [THE_MODEL_MAIN]":
(PID.TID 0000.0001)           User time:  0.309999993
(PID.TID 0000.0001)         System time:  0.0299999993
(PID.TID 0000.0001)     Wall clock time:  0.345948935
(PID.TID 0000.0001)          No. starts: 1
(PID.TID 0000.0001)           No. stops: 1
(PID.TID 0000.0001)   Seconds in section "THE_MAIN_LOOP      [THE_MODEL_MAIN]":
(PID.TID 0000.0001)           User time:  4.58999985
(PID.TID 0000.0001)         System time:  0.0999999959
(PID.TID 0000.0001)     Wall clock time:  4.71225297
(PID.TID 0000.0001)          No. starts: 1
(PID.TID 0000.0001)           No. stops: 1
(PID.TID 0000.0001)   Seconds in section "INITIALISE_VARIA    [THE_MAIN_LOOP]":
(PID.TID 0000.0001)           User time:  0.0400000215
(PID.TID 0000.0001)         System time:  0.040000001
(PID.TID 0000.0001)     Wall clock time:  0.0899599791
(PID.TID 0000.0001)          No. starts: 1
(PID.TID 0000.0001)           No. stops: 1
(PID.TID 0000.0001)   Seconds in section "WRITE_STATE         [THE_MAIN_LOOP]":
(PID.TID 0000.0001)           User time:  0.0399999917
(PID.TID 0000.0001)         System time:  0.00999999791
(PID.TID 0000.0001)     Wall clock time:  0.0501949787
(PID.TID 0000.0001)          No. starts: 1
(PID.TID 0000.0001)           No. stops: 1
(PID.TID 0000.0001)   Seconds in section "MONITOR             [THE_MAIN_LOOP]":
(PID.TID 0000.0001)           User time:  0.0600000024
(PID.TID 0000.0001)         System time:  0.
(PID.TID 0000.0001)     Wall clock time:  0.0635069609
(PID.TID 0000.0001)          No. starts: 1
(PID.TID 0000.0001)           No. stops: 1
(PID.TID 0000.0001)   Seconds in section "MAIN LOOP           [THE_MAIN_LOOP]":
(PID.TID 0000.0001)           User time:  4.44999984
(PID.TID 0000.0001)         System time:  0.049999997
(PID.TID 0000.0001)     Wall clock time:  4.508129
(PID.TID 0000.0001)          No. starts: 1
(PID.TID 0000.0001)           No. stops: 1
(PID.TID 0000.0001)   Seconds in section "FORWARD_STEP        [THE_MAIN_LOOP]":
(PID.TID 0000.0001)           User time:  4.44999984
(PID.TID 0000.0001)         System time:  0.049999997
(PID.TID 0000.0001)     Wall clock time:  4.50717628
(PID.TID 0000.0001)          No. starts: 10
(PID.TID 0000.0001)           No. stops: 10
(PID.TID 0000.0001)   Seconds in section "EXTERNAL_FIELDS_LOAD[THE_MAIN_LOOP]":
(PID.TID 0000.0001)           User time:  0.00999999046
(PID.TID 0000.0001)         System time:  0.
(PID.TID 0000.0001)     Wall clock time:  0.000892162323
(PID.TID 0000.0001)          No. starts: 10
(PID.TID 0000.0001)           No. stops: 10
(PID.TID 0000.0001)   Seconds in section "THERMODYNAMICS      [THE_MAIN_LOOP]":
(PID.TID 0000.0001)           User time:  0.800000519
(PID.TID 0000.0001)         System time:  0.0100000054
(PID.TID 0000.0001)     Wall clock time:  0.83446002
(PID.TID 0000.0001)          No. starts: 10
(PID.TID 0000.0001)           No. stops: 10
(PID.TID 0000.0001)   Seconds in section "DYNAMICS            [THE_MAIN_LOOP]":
(PID.TID 0000.0001)           User time:  1.64999926
(PID.TID 0000.0001)         System time:  0.00999999791
(PID.TID 0000.0001)     Wall clock time:  1.66423702
(PID.TID 0000.0001)          No. starts: 10
(PID.TID 0000.0001)           No. stops: 10
(PID.TID 0000.0001)   Seconds in section "SOLVE_FOR_PRESSURE  [THE_MAIN_LOOP]":
(PID.TID 0000.0001)           User time:  1.22000062
(PID.TID 0000.0001)         System time:  0.
(PID.TID 0000.0001)     Wall clock time:  1.21610796
(PID.TID 0000.0001)          No. starts: 10
(PID.TID 0000.0001)           No. stops: 10
(PID.TID 0000.0001)   Seconds in section "THE_CORRECTION_STEP [THE_MAIN_LOOP]":
(PID.TID 0000.0001)           User time:  0.0899996758
(PID.TID 0000.0001)         System time:  0.
(PID.TID 0000.0001)     Wall clock time:  0.0929261446
(PID.TID 0000.0001)          No. starts: 10
(PID.TID 0000.0001)           No. stops: 10
(PID.TID 0000.0001)   Seconds in section "BLOCKING_EXCHANGES  [THE_MAIN_LOOP]":
(PID.TID 0000.0001)           User time:  0.0699996948
(PID.TID 0000.0001)         System time:  0.
(PID.TID 0000.0001)     Wall clock time:  0.0614757538
(PID.TID 0000.0001)          No. starts: 10
(PID.TID 0000.0001)           No. stops: 10
(PID.TID 0000.0001)   Seconds in section "DO_THE_MODEL_IO     [THE_MAIN_LOOP]":
(PID.TID 0000.0001)           User time:  0.0299999714
(PID.TID 0000.0001)         System time:  0.0299999937
(PID.TID 0000.0001)     Wall clock time:  0.0519020557
(PID.TID 0000.0001)          No. starts: 10
(PID.TID 0000.0001)           No. stops: 10
(PID.TID 0000.0001)   Seconds in section "WRITE_CHECKPOINT    [THE_MAIN_LOOP]":
(PID.TID 0000.0001)           User time:  0.
(PID.TID 0000.0001)         System time:  0.
(PID.TID 0000.0001)     Wall clock time:  0.000882029533
(PID.TID 0000.0001)          No. starts: 10
(PID.TID 0000.0001)           No. stops: 10
(PID.TID 0000.0001)   Seconds in section "WRITE_CHECKPOINT   [THE_MODEL_MAIN]":
(PID.TID 0000.0001)           User time:  0.200000286
(PID.TID 0000.0001)         System time:  0.0799999982
(PID.TID 0000.0001)     Wall clock time:  0.274454951
(PID.TID 0000.0001)          No. starts: 1
(PID.TID 0000.0001)           No. stops: 1
(PID.TID 0000.0001) // ======================================================
(PID.TID 0000.0001) // Tile <-> Tile communication statistics
(PID.TID 0000.0001) // ======================================================
(PID.TID 0000.0001) // o Tile number: 000001
(PID.TID 0000.0001) //         No. X exchanges =              0
(PID.TID 0000.0001) //            Max. X spins =              0
(PID.TID 0000.0001) //            Min. X spins =     1000000000
(PID.TID 0000.0001) //          Total. X spins =              0
(PID.TID 0000.0001) //            Avg. X spins =       0.00E+00
(PID.TID 0000.0001) //         No. Y exchanges =              0
(PID.TID 0000.0001) //            Max. Y spins =              0
(PID.TID 0000.0001) //            Min. Y spins =     1000000000
(PID.TID 0000.0001) //          Total. Y spins =              0
(PID.TID 0000.0001) //            Avg. Y spins =       0.00E+00
(PID.TID 0000.0001) // o Tile number: 000002
(PID.TID 0000.0001) //         No. X exchanges =              0
(PID.TID 0000.0001) //            Max. X spins =              0
(PID.TID 0000.0001) //            Min. X spins =     1000000000
(PID.TID 0000.0001) //          Total. X spins =              0
(PID.TID 0000.0001) //            Avg. X spins =       0.00E+00
(PID.TID 0000.0001) //         No. Y exchanges =              0
(PID.TID 0000.0001) //            Max. Y spins =              0
(PID.TID 0000.0001) //            Min. Y spins =     1000000000
(PID.TID 0000.0001) //          Total. Y spins =              0
(PID.TID 0000.0001) //            Avg. Y spins =       0.00E+00
(PID.TID 0000.0001) // o Tile number: 000003
(PID.TID 0000.0001) //         No. X exchanges =              0
(PID.TID 0000.0001) //            Max. X spins =              0
(PID.TID 0000.0001) //            Min. X spins =     1000000000
(PID.TID 0000.0001) //          Total. X spins =              0
(PID.TID 0000.0001) //            Avg. X spins =       0.00E+00
(PID.TID 0000.0001) //         No. Y exchanges =              0
(PID.TID 0000.0001) //            Max. Y spins =              0
(PID.TID 0000.0001) //            Min. Y spins =     1000000000
(PID.TID 0000.0001) //          Total. Y spins =              0
(PID.TID 0000.0001) //            Avg. Y spins =       0.00E+00
(PID.TID 0000.0001) // o Tile number: 000004
(PID.TID 0000.0001) //         No. X exchanges =              0
(PID.TID 0000.0001) //            Max. X spins =              0
(PID.TID 0000.0001) //            Min. X spins =     1000000000
(PID.TID 0000.0001) //          Total. X spins =              0
(PID.TID 0000.0001) //            Avg. X spins =       0.00E+00
(PID.TID 0000.0001) //         No. Y exchanges =              0
(PID.TID 0000.0001) //            Max. Y spins =              0
(PID.TID 0000.0001) //            Min. Y spins =     1000000000
(PID.TID 0000.0001) //          Total. Y spins =              0
(PID.TID 0000.0001) //            Avg. Y spins =       0.00E+00
(PID.TID 0000.0001) // o Thread number: 000001
(PID.TID 0000.0001) //            No. barriers =           7284
(PID.TID 0000.0001) //      Max. barrier spins =              1
(PID.TID 0000.0001) //      Min. barrier spins =              1
(PID.TID 0000.0001) //     Total barrier spins =           7284
(PID.TID 0000.0001) //      Avg. barrier spins =       1.00E+00
