(PID.TID 0000.0001) 
(PID.TID 0000.0001) // ======================================================
(PID.TID 0000.0001) //                      MITgcm UV
(PID.TID 0000.0001) //                      =========
(PID.TID 0000.0001) // ======================================================
(PID.TID 0000.0001) // execution environment starting up...
(PID.TID 0000.0001) // Run starting Wed Apr  1 14:19:48 1998
(PID.TID 0000.0001) // on melville.lcs.mit.edu
(PID.TID 0000.0001) // account cnh
(PID.TID 0000.0001) // MITgcm UV Release: $Name:  $
(PID.TID 0000.0001) 
(PID.TID 0000.0001) // =======================================================
(PID.TID 0000.0001) // Execution Environment parameter file "eedata"
(PID.TID 0000.0001) // =======================================================
(PID.TID 0000.0001) ># Example "eedata" file
(PID.TID 0000.0001) ># Lines beginning "#" are comments
(PID.TID 0000.0001) ># nTx - No. threads per process in X
(PID.TID 0000.0001) ># nTy - No. threads per process in Y
(PID.TID 0000.0001) > &EEPARMS
(PID.TID 0000.0001) > nTx=1,nTy=1,
(PID.TID 0000.0001) > &
(PID.TID 0000.0001) ># Note: Some systems use & as the
(PID.TID 0000.0001) ># namelist terminator. Other systems
(PID.TID 0000.0001) ># use a / character (as shown here).
(PID.TID 0000.0001) 
(PID.TID 0000.0001) // =======================================================
(PID.TID 0000.0001) // Computational Grid Specification ( see files "SIZE.h" )
(PID.TID 0000.0001) //                                  ( and "eedata"       )
(PID.TID 0000.0001) // =======================================================
(PID.TID 0000.0001)      nPx =    1 ; /* No. processes in X */
(PID.TID 0000.0001)      nPy =    1 ; /* No. processes in Y */
(PID.TID 0000.0001)      nSx =    2 ; /* No. tiles in X per process */
(PID.TID 0000.0001)      nSy =    2 ; /* No. tiles in Y per process */
(PID.TID 0000.0001)      sNx =   30 ; /* Tile size in X */
(PID.TID 0000.0001)      sNy =   30 ; /* Tile size in Y */
(PID.TID 0000.0001)      OLx =    3 ; /* Tile overlap distance in X */
(PID.TID 0000.0001)      OLy =    3 ; /* Tile overlap distance in Y */
(PID.TID 0000.0001)      nTx =    1 ; /* No. threads in X per process */
(PID.TID 0000.0001)      nTy =    1 ; /* No. threads in Y per process */
(PID.TID 0000.0001)       Nr =    4 ; /* No. levels in the vertical   */
(PID.TID 0000.0001)       nX =   60 ; /* Total domain size in X ( = nPx*nSx*sNx ) */
(PID.TID 0000.0001)       nY =   60 ; /* Total domain size in Y ( = nPy*nSy*sNy ) */
(PID.TID 0000.0001)   nTiles =    4 ; /* Total no. tiles per process ( = nSx*nSy ) */
(PID.TID 0000.0001)   nProcs =    1 ; /* Total no. processes ( = nPx*nPy ) */
(PID.TID 0000.0001) nThreads =    1 ; /* Total no. threads per process ( = nTx*nTy ) */
(PID.TID 0000.0001) usingMPI =    F ; /* Flag used to control whether MPI is in use */
(PID.TID 0000.0001)                   /*  note: To execute a program with MPI calls */
(PID.TID 0000.0001)                   /*  it must be launched appropriately e.g     */
(PID.TID 0000.0001)                   /*  "mpirun -np 64 ......"                    */
(PID.TID 0000.0001) 
(PID.TID 0000.0001) // ======================================================
(PID.TID 0000.0001) // Mapping of tiles to threads
(PID.TID 0000.0001) // ======================================================
(PID.TID 0000.0001) // -o- Thread   1, tiles (   1:   2,   1:   2)
(PID.TID 0000.0001) 
(PID.TID 0000.0001) // ======================================================
(PID.TID 0000.0001) // Tile <-> Tile connectvity table
(PID.TID 0000.0001) // ======================================================
(PID.TID 0000.0001) // Tile number: 000001 (process no. = 000001)
(PID.TID 0000.0001) //        WEST: Tile = 000002, Process = 000001, Comm = put
(PID.TID 0000.0001) //                bi = 000002, bj = 000001
(PID.TID 0000.0001) //        EAST: Tile = 000002, Process = 000001, Comm = put
(PID.TID 0000.0001) //                bi = 000002, bj = 000001
(PID.TID 0000.0001) //       SOUTH: Tile = 000003, Process = 000001, Comm = put
(PID.TID 0000.0001) //                bi = 000001, bj = 000002
(PID.TID 0000.0001) //       NORTH: Tile = 000003, Process = 000001, Comm = put
(PID.TID 0000.0001) //                bi = 000001, bj = 000002
(PID.TID 0000.0001) // Tile number: 000002 (process no. = 000001)
(PID.TID 0000.0001) //        WEST: Tile = 000001, Process = 000001, Comm = put
(PID.TID 0000.0001) //                bi = 000001, bj = 000001
(PID.TID 0000.0001) //        EAST: Tile = 000001, Process = 000001, Comm = put
(PID.TID 0000.0001) //                bi = 000001, bj = 000001
(PID.TID 0000.0001) //       SOUTH: Tile = 000004, Process = 000001, Comm = put
(PID.TID 0000.0001) //                bi = 000002, bj = 000002
(PID.TID 0000.0001) //       NORTH: Tile = 000004, Process = 000001, Comm = put
(PID.TID 0000.0001) //                bi = 000002, bj = 000002
(PID.TID 0000.0001) // Tile number: 000003 (process no. = 000001)
(PID.TID 0000.0001) //        WEST: Tile = 000004, Process = 000001, Comm = put
(PID.TID 0000.0001) //                bi = 000002, bj = 000002
(PID.TID 0000.0001) //        EAST: Tile = 000004, Process = 000001, Comm = put
(PID.TID 0000.0001) //                bi = 000002, bj = 000002
(PID.TID 0000.0001) //       SOUTH: Tile = 000001, Process = 000001, Comm = put
(PID.TID 0000.0001) //                bi = 000001, bj = 000001
(PID.TID 0000.0001) //       NORTH: Tile = 000001, Process = 000001, Comm = put
(PID.TID 0000.0001) //                bi = 000001, bj = 000001
(PID.TID 0000.0001) // Tile number: 000004 (process no. = 000001)
(PID.TID 0000.0001) //        WEST: Tile = 000003, Process = 000001, Comm = put
(PID.TID 0000.0001) //                bi = 000001, bj = 000002
(PID.TID 0000.0001) //        EAST: Tile = 000003, Process = 000001, Comm = put
(PID.TID 0000.0001) //                bi = 000001, bj = 000002
(PID.TID 0000.0001) //       SOUTH: Tile = 000002, Process = 000001, Comm = put
(PID.TID 0000.0001) //                bi = 000002, bj = 000001
(PID.TID 0000.0001) //       NORTH: Tile = 000002, Process = 000001, Comm = put
(PID.TID 0000.0001) //                bi = 000002, bj = 000001
(PID.TID 0000.0001) 
(PID.TID 0000.0001) // =======================================================
(PID.TID 0000.0001) // Model parameter file "data"
(PID.TID 0000.0001) // =======================================================
(PID.TID 0000.0001) ># Model parameters
(PID.TID 0000.0001) ># Continuous equation parameters
(PID.TID 0000.0001) > &PARM01
(PID.TID 0000.0001) > tRef=20.,10.,8.,6.,
(PID.TID 0000.0001) > sRef=10.,10.,10.,10.,
(PID.TID 0000.0001) > viscAz=1.E-2,
(PID.TID 0000.0001) > viscAh=4.E2,
(PID.TID 0000.0001) > no_slip_sides=.FALSE.,
(PID.TID 0000.0001) > no_slip_bottom=.TRUE.,
(PID.TID 0000.0001) > diffKhT=4.E2,
(PID.TID 0000.0001) > diffKzT=1.E-2,
(PID.TID 0000.0001) > beta=1.E-11,
(PID.TID 0000.0001) > tAlpha=2.E-4,
(PID.TID 0000.0001) > sBeta =0.,
(PID.TID 0000.0001) > gravity=9.81,
(PID.TID 0000.0001) > rigidLid=.FALSE.,
(PID.TID 0000.0001) > implicitFreeSurface=.TRUE.,
(PID.TID 0000.0001) > eosType='LINEAR',
(PID.TID 0000.0001) > readBinaryPrec=64,
(PID.TID 0000.0001) > &
(PID.TID 0000.0001) ># Elliptic solver parameters
(PID.TID 0000.0001) > &PARM02
(PID.TID 0000.0001) > cg2dMaxIters=1000,
(PID.TID 0000.0001) > cg2dTargetResidual=1.E-13,
(PID.TID 0000.0001) > &
(PID.TID 0000.0001) ># Time stepping parameters
(PID.TID 0000.0001) > &PARM03
(PID.TID 0000.0001) > startTime=0.,
(PID.TID 0000.0001) > endTime=12000.,
(PID.TID 0000.0001) > deltaTmom=1200.0,
(PID.TID 0000.0001) > deltaTtracer=1200.0,
(PID.TID 0000.0001) > abEps=0.1,
(PID.TID 0000.0001) > pChkptFreq=17000.0,
(PID.TID 0000.0001) > chkptFreq=0.0,
(PID.TID 0000.0001) > dumpFreq=2592000.0,
(PID.TID 0000.0001) > monitorFreq=1.,
(PID.TID 0000.0001) > &
(PID.TID 0000.0001) ># Gridding parameters
(PID.TID 0000.0001) > &PARM04
(PID.TID 0000.0001) > usingCartesianGrid=.FALSE.,
(PID.TID 0000.0001) > usingSphericalPolarGrid=.TRUE.,
(PID.TID 0000.0001) > phiMin=-30.,
(PID.TID 0000.0001) > delX=60*1.,
(PID.TID 0000.0001) > delY=60*1.,
(PID.TID 0000.0001) > delZ=500.,500.,500.,500.,
(PID.TID 0000.0001) > &
(PID.TID 0000.0001) > &PARM05
(PID.TID 0000.0001) > bathyFile='topog.box',
(PID.TID 0000.0001) > hydrogThetaFile=,
(PID.TID 0000.0001) > hydrogSaltFile=,
(PID.TID 0000.0001) > zonalWindFile='windx.sin_y',
(PID.TID 0000.0001) > meridWindFile=,
(PID.TID 0000.0001) > &
(PID.TID 0000.0001) 
(PID.TID 0000.0001) %MON XC_max                       =   5.9500000000000E+01
(PID.TID 0000.0001) %MON XC_min                       =   5.0000000000000E-01
(PID.TID 0000.0001) %MON XC_mean                      =   3.0000000000000E+01
(PID.TID 0000.0001) %MON XC_sd                        =   1.7318102282487E+01
(PID.TID 0000.0001) %MON XG_max                       =   5.9000000000000E+01
(PID.TID 0000.0001) %MON XG_min                       =   1.0000000000000E+00
(PID.TID 0000.0001) %MON XG_mean                      =   3.0000000000000E+01
(PID.TID 0000.0001) %MON XG_sd                        =   1.7029386365926E+01
(PID.TID 0000.0001) %MON DXC_max                      =   1.1117324005452E+05
(PID.TID 0000.0001) %MON DXC_min                      =   9.6763947192153E+04
(PID.TID 0000.0001) %MON DXC_mean                     =   1.0616801418764E+05
(PID.TID 0000.0001) %MON DXC_sd                       =   4.4524656773709E+03
(PID.TID 0000.0001) %MON DXF_max                      =   1.1117324005452E+05
(PID.TID 0000.0001) %MON DXF_min                      =   9.6763947192153E+04
(PID.TID 0000.0001) %MON DXF_mean                     =   1.0616801418764E+05
(PID.TID 0000.0001) %MON DXF_sd                       =   4.4524656773709E+03
(PID.TID 0000.0001) %MON DXG_max                      =   1.1117747335204E+05
(PID.TID 0000.0001) %MON DXG_min                      =   9.6282516251433E+04
(PID.TID 0000.0001) %MON DXG_mean                     =   1.0616397163498E+05
(PID.TID 0000.0001) %MON DXG_sd                       =   4.4614285533686E+03
(PID.TID 0000.0001) %MON DXV_max                      =   1.1117747335204E+05
(PID.TID 0000.0001) %MON DXV_min                      =   9.6282516251433E+04
(PID.TID 0000.0001) %MON DXV_mean                     =   1.0616397163498E+05
(PID.TID 0000.0001) %MON DXV_sd                       =   4.4614285533686E+03
(PID.TID 0000.0001) %MON YC_max                       =   2.9500000000000E+01
(PID.TID 0000.0001) %MON YC_min                       =  -2.9500000000000E+01
(PID.TID 0000.0001) %MON YC_mean                      =   0.0000000000000E+00
(PID.TID 0000.0001) %MON YC_sd                        =   1.7318102282487E+01
(PID.TID 0000.0001) %MON YG_max                       =   2.9000000000000E+01
(PID.TID 0000.0001) %MON YG_min                       =  -3.0000000000000E+01
(PID.TID 0000.0001) %MON YG_mean                      =  -5.0847457627119E-01
(PID.TID 0000.0001) %MON YG_sd                        =   1.7464125826775E+01
(PID.TID 0000.0001) %MON DYC_max                      =   1.1117747335204E+05
(PID.TID 0000.0001) %MON DYC_min                      =   1.1117747335204E+05
(PID.TID 0000.0001) %MON DYC_mean                     =   1.1117747335203E+05
(PID.TID 0000.0001) %MON DYC_sd                       =   4.9622030928731E-09
(PID.TID 0000.0001) %MON DYF_max                      =   1.1117747335204E+05
(PID.TID 0000.0001) %MON DYF_min                      =   1.1117747335204E+05
(PID.TID 0000.0001) %MON DYF_mean                     =   1.1117747335203E+05
(PID.TID 0000.0001) %MON DYF_sd                       =   4.9622030928731E-09
(PID.TID 0000.0001) %MON DYG_max                      =   1.1117747335204E+05
(PID.TID 0000.0001) %MON DYG_min                      =   1.1117747335204E+05
(PID.TID 0000.0001) %MON DYG_mean                     =   1.1117747335203E+05
(PID.TID 0000.0001) %MON DYG_sd                       =   4.9622030928731E-09
(PID.TID 0000.0001) %MON DYU_max                      =   1.1117747335204E+05
(PID.TID 0000.0001) %MON DYU_min                      =   1.1117747335204E+05
(PID.TID 0000.0001) %MON DYU_mean                     =   1.1117747335203E+05
(PID.TID 0000.0001) %MON DYU_sd                       =   4.9622030928731E-09
(PID.TID 0000.0001) %MON RA_max                       =   1.2359803056756E+10
(PID.TID 0000.0001) %MON RA_min                       =   1.0757834616521E+10
(PID.TID 0000.0001) %MON RA_mean                      =   1.1803341754208E+10
(PID.TID 0000.0001) %MON RA_sd                        =   4.9500760131018E+08
(PID.TID 0000.0001) %MON RAW_max                      =   1.2359803056756E+10
(PID.TID 0000.0001) %MON RAW_min                      =   1.0757834616521E+10
(PID.TID 0000.0001) %MON RAW_mean                     =   1.1803341754208E+10
(PID.TID 0000.0001) %MON RAW_sd                       =   4.9500760131018E+08
(PID.TID 0000.0001) %MON RAS_max                      =   1.2360273698104E+10
(PID.TID 0000.0001) %MON RAS_min                      =   1.0704311020287E+10
(PID.TID 0000.0001) %MON RAS_mean                     =   1.1802892319122E+10
(PID.TID 0000.0001) %MON RAS_sd                       =   4.9600405857003E+08
(PID.TID 0000.0001) %MON RAZ_max                      =   1.2360273698104E+10
(PID.TID 0000.0001) %MON RAZ_min                      =   1.0704311020287E+10
(PID.TID 0000.0001) %MON RAZ_mean                     =   1.1802892319122E+10
(PID.TID 0000.0001) %MON RAZ_sd                       =   4.9600405857003E+08
(PID.TID 0000.0001)  MDSREADFIELD: opening global file: topog.box
(PID.TID 0000.0001) // =======================================================
(PID.TID 0000.0001) // Field Model R_low (ini_masks_etc) at iteration          1
(PID.TID 0000.0001) // CMIN =         -2.000000000000000E+03
(PID.TID 0000.0001) // CMAX =         -2.000000000000000E+03
(PID.TID 0000.0001) // CINT =          0.000000000000000E+00
(PID.TID 0000.0001) // SYMBOLS (CMIN->CMAX): -abcdefghijklmnopqrstuvwxyz+
(PID.TID 0000.0001) //                  0.0: .
(PID.TID 0000.0001) // RANGE I (Lo:Hi:Step):(  -2:  63:   1)
(PID.TID 0000.0001) // RANGE J (Lo:Hi:Step):(  63:  -2:  -1)
(PID.TID 0000.0001) // RANGE K (Lo:Hi:Step):(   1:   1:   1)
(PID.TID 0000.0001) // =======================================================
(PID.TID 0000.0001) K =   1
(PID.TID 0000.0001) //                I=7       I=17      I=27      I=31      I=41      I=51      I=61
(PID.TID 0000.0001) // |--J--|**0123456|890123456|890123456|890123890|234567890|234567890|234567890|23
(PID.TID 0000.0001) //     63 --.-----------------------------------------------------------------.---
(PID.TID 0000.0001) //     62 --.-----------------------------------------------------------------.---
(PID.TID 0000.0001) //     61 --.-----------------------------------------------------------------.---
(PID.TID 0000.0001) //     60 ........................................................................
(PID.TID 0000.0001) //     59 --.-----------------------------------------------------------------.---
(PID.TID 0000.0001) //     58 --.-----------------------------------------------------------------.---
(PID.TID 0000.0001) //     57 --.-----------------------------------------------------------------.---
(PID.TID 0000.0001) //     56 --.-----------------------------------------------------------------.---
(PID.TID 0000.0001) //     55 --.-----------------------------------------------------------------.---
(PID.TID 0000.0001) //     54 --.-----------------------------------------------------------------.---
(PID.TID 0000.0001) //     53 --.-----------------------------------------------------------------.---
(PID.TID 0000.0001) //     52 --.-----------------------------------------------------------------.---
(PID.TID 0000.0001) //     51 --.-----------------------------------------------------------------.---
(PID.TID 0000.0001) //     50 --.-----------------------------------------------------------------.---
(PID.TID 0000.0001) //     49 --.-----------------------------------------------------------------.---
(PID.TID 0000.0001) //     48 --.-----------------------------------------------------------------.---
(PID.TID 0000.0001) //     47 --.-----------------------------------------------------------------.---
(PID.TID 0000.0001) //     46 --.-----------------------------------------------------------------.---
(PID.TID 0000.0001) //     45 --.-----------------------------------------------------------------.---
(PID.TID 0000.0001) //     44 --.-----------------------------------------------------------------.---
(PID.TID 0000.0001) //     43 --.-----------------------------------------------------------------.---
(PID.TID 0000.0001) //     42 --.-----------------------------------------------------------------.---
(PID.TID 0000.0001) //     41 --.-----------------------------------------------------------------.---
(PID.TID 0000.0001) //     40 --.-----------------------------------------------------------------.---
(PID.TID 0000.0001) //     39 --.-----------------------------------------------------------------.---
(PID.TID 0000.0001) //     38 --.-----------------------------------------------------------------.---
(PID.TID 0000.0001) //     37 --.-----------------------------------------------------------------.---
(PID.TID 0000.0001) //     36 --.-----------------------------------------------------------------.---
(PID.TID 0000.0001) //     35 --.-----------------------------------------------------------------.---
(PID.TID 0000.0001) //     34 --.-----------------------------------------------------------------.---
(PID.TID 0000.0001) //     33 --.-----------------------------------------------------------------.---
(PID.TID 0000.0001) //     32 --.-----------------------------------------------------------------.---
(PID.TID 0000.0001) //     31 --.-----------------------------------------------------------------.---
(PID.TID 0000.0001) //     30 --.-----------------------------------------------------------------.---
(PID.TID 0000.0001) //     29 --.-----------------------------------------------------------------.---
(PID.TID 0000.0001) //     28 --.-----------------------------------------------------------------.---
(PID.TID 0000.0001) //     33 --.-----------------------------------------------------------------.---
(PID.TID 0000.0001) //     32 --.-----------------------------------------------------------------.---
(PID.TID 0000.0001) //     31 --.-----------------------------------------------------------------.---
(PID.TID 0000.0001) //     30 --.-----------------------------------------------------------------.---
(PID.TID 0000.0001) //     29 --.-----------------------------------------------------------------.---
(PID.TID 0000.0001) //     28 --.-----------------------------------------------------------------.---
(PID.TID 0000.0001) //     27 --.-----------------------------------------------------------------.---
(PID.TID 0000.0001) //     26 --.-----------------------------------------------------------------.---
(PID.TID 0000.0001) //     25 --.-----------------------------------------------------------------.---
(PID.TID 0000.0001) //     24 --.-----------------------------------------------------------------.---
(PID.TID 0000.0001) //     23 --.-----------------------------------------------------------------.---
(PID.TID 0000.0001) //     22 --.-----------------------------------------------------------------.---
(PID.TID 0000.0001) //     21 --.-----------------------------------------------------------------.---
(PID.TID 0000.0001) //     20 --.-----------------------------------------------------------------.---
(PID.TID 0000.0001) //     19 --.-----------------------------------------------------------------.---
(PID.TID 0000.0001) //     18 --.-----------------------------------------------------------------.---
(PID.TID 0000.0001) //     17 --.-----------------------------------------------------------------.---
(PID.TID 0000.0001) //     16 --.-----------------------------------------------------------------.---
(PID.TID 0000.0001) //     15 --.-----------------------------------------------------------------.---
(PID.TID 0000.0001) //     14 --.-----------------------------------------------------------------.---
(PID.TID 0000.0001) //     13 --.-----------------------------------------------------------------.---
(PID.TID 0000.0001) //     12 --.-----------------------------------------------------------------.---
(PID.TID 0000.0001) //     11 --.-----------------------------------------------------------------.---
(PID.TID 0000.0001) //     10 --.-----------------------------------------------------------------.---
(PID.TID 0000.0001) //      9 --.-----------------------------------------------------------------.---
(PID.TID 0000.0001) //      8 --.-----------------------------------------------------------------.---
(PID.TID 0000.0001) //      7 --.-----------------------------------------------------------------.---
(PID.TID 0000.0001) //      6 --.-----------------------------------------------------------------.---
(PID.TID 0000.0001) //      5 --.-----------------------------------------------------------------.---
(PID.TID 0000.0001) //      4 --.-----------------------------------------------------------------.---
(PID.TID 0000.0001) //      3 --.-----------------------------------------------------------------.---
(PID.TID 0000.0001) //      2 --.-----------------------------------------------------------------.---
(PID.TID 0000.0001) //      1 --.-----------------------------------------------------------------.---
(PID.TID 0000.0001) //      0 ........................................................................
(PID.TID 0000.0001) //     -1 --.-----------------------------------------------------------------.---
(PID.TID 0000.0001) //     -2 --.-----------------------------------------------------------------.---
(PID.TID 0000.0001) // =======================================================
(PID.TID 0000.0001) // END OF FIELD                                          =
(PID.TID 0000.0001) // =======================================================
(PID.TID 0000.0001) 
(PID.TID 0000.0001) // =======================================================
(PID.TID 0000.0001) // Field Model Ro_surf (ini_masks_etc) at iteration          1
(PID.TID 0000.0001) // CMIN =          1.000000000000000E+32
(PID.TID 0000.0001) // CMAX =         -1.000000000000000E+32
(PID.TID 0000.0001) // CINT =          0.000000000000000E+00
(PID.TID 0000.0001) // SYMBOLS (CMIN->CMAX): -abcdefghijklmnopqrstuvwxyz+
(PID.TID 0000.0001) //                  0.0: .
(PID.TID 0000.0001) // RANGE I (Lo:Hi:Step):(  -2:  63:   1)
(PID.TID 0000.0001) // RANGE J (Lo:Hi:Step):(  63:  -2:  -1)
(PID.TID 0000.0001) // RANGE K (Lo:Hi:Step):(   1:   1:   1)
(PID.TID 0000.0001) // =======================================================
(PID.TID 0000.0001) K =   1
(PID.TID 0000.0001) //                I=7       I=17      I=27      I=31      I=41      I=51      I=61
(PID.TID 0000.0001) // |--J--|**0123456|890123456|890123456|890123890|234567890|234567890|234567890|23
(PID.TID 0000.0001) //     63 ........................................................................
(PID.TID 0000.0001) //     62 ........................................................................
(PID.TID 0000.0001) //     61 ........................................................................
(PID.TID 0000.0001) //     60 ........................................................................
(PID.TID 0000.0001) //     59 ........................................................................
(PID.TID 0000.0001) //     58 ........................................................................
(PID.TID 0000.0001) //     57 ........................................................................
(PID.TID 0000.0001) //     56 ........................................................................
(PID.TID 0000.0001) //     55 ........................................................................
(PID.TID 0000.0001) //     54 ........................................................................
(PID.TID 0000.0001) //     53 ........................................................................
(PID.TID 0000.0001) //     52 ........................................................................
(PID.TID 0000.0001) //     51 ........................................................................
(PID.TID 0000.0001) //     50 ........................................................................
(PID.TID 0000.0001) //     49 ........................................................................
(PID.TID 0000.0001) //     48 ........................................................................
(PID.TID 0000.0001) //     47 ........................................................................
(PID.TID 0000.0001) //     46 ........................................................................
(PID.TID 0000.0001) //     45 ........................................................................
(PID.TID 0000.0001) //     44 ........................................................................
(PID.TID 0000.0001) //     43 ........................................................................
(PID.TID 0000.0001) //     42 ........................................................................
(PID.TID 0000.0001) //     41 ........................................................................
(PID.TID 0000.0001) //     40 ........................................................................
(PID.TID 0000.0001) //     39 ........................................................................
(PID.TID 0000.0001) //     38 ........................................................................
(PID.TID 0000.0001) //     37 ........................................................................
(PID.TID 0000.0001) //     36 ........................................................................
(PID.TID 0000.0001) //     35 ........................................................................
(PID.TID 0000.0001) //     34 ........................................................................
(PID.TID 0000.0001) //     33 ........................................................................
(PID.TID 0000.0001) //     32 ........................................................................
(PID.TID 0000.0001) //     31 ........................................................................
(PID.TID 0000.0001) //     30 ........................................................................
(PID.TID 0000.0001) //     29 ........................................................................
(PID.TID 0000.0001) //     28 ........................................................................
(PID.TID 0000.0001) //     33 ........................................................................
(PID.TID 0000.0001) //     32 ........................................................................
(PID.TID 0000.0001) //     31 ........................................................................
(PID.TID 0000.0001) //     30 ........................................................................
(PID.TID 0000.0001) //     29 ........................................................................
(PID.TID 0000.0001) //     28 ........................................................................
(PID.TID 0000.0001) //     27 ........................................................................
(PID.TID 0000.0001) //     26 ........................................................................
(PID.TID 0000.0001) //     25 ........................................................................
(PID.TID 0000.0001) //     24 ........................................................................
(PID.TID 0000.0001) //     23 ........................................................................
(PID.TID 0000.0001) //     22 ........................................................................
(PID.TID 0000.0001) //     21 ........................................................................
(PID.TID 0000.0001) //     20 ........................................................................
(PID.TID 0000.0001) //     19 ........................................................................
(PID.TID 0000.0001) //     18 ........................................................................
(PID.TID 0000.0001) //     17 ........................................................................
(PID.TID 0000.0001) //     16 ........................................................................
(PID.TID 0000.0001) //     15 ........................................................................
(PID.TID 0000.0001) //     14 ........................................................................
(PID.TID 0000.0001) //     13 ........................................................................
(PID.TID 0000.0001) //     12 ........................................................................
(PID.TID 0000.0001) //     11 ........................................................................
(PID.TID 0000.0001) //     10 ........................................................................
(PID.TID 0000.0001) //      9 ........................................................................
(PID.TID 0000.0001) //      8 ........................................................................
(PID.TID 0000.0001) //      7 ........................................................................
(PID.TID 0000.0001) //      6 ........................................................................
(PID.TID 0000.0001) //      5 ........................................................................
(PID.TID 0000.0001) //      4 ........................................................................
(PID.TID 0000.0001) //      3 ........................................................................
(PID.TID 0000.0001) //      2 ........................................................................
(PID.TID 0000.0001) //      1 ........................................................................
(PID.TID 0000.0001) //      0 ........................................................................
(PID.TID 0000.0001) //     -1 ........................................................................
(PID.TID 0000.0001) //     -2 ........................................................................
(PID.TID 0000.0001) // =======================================================
(PID.TID 0000.0001) // END OF FIELD                                          =
(PID.TID 0000.0001) // =======================================================
(PID.TID 0000.0001) 
(PID.TID 0000.0001) // =======================================================
(PID.TID 0000.0001) // Field hFacC at iteration          1
(PID.TID 0000.0001) // CMIN =          1.000000000000000E+00
(PID.TID 0000.0001) // CMAX =          1.000000000000000E+00
(PID.TID 0000.0001) // CINT =          0.000000000000000E+00
(PID.TID 0000.0001) // SYMBOLS (CMIN->CMAX): -abcdefghijklmnopqrstuvwxyz+
(PID.TID 0000.0001) //                  0.0: .
(PID.TID 0000.0001) // RANGE I (Lo:Hi:Step):(  -2:  63:   1)
(PID.TID 0000.0001) // RANGE J (Lo:Hi:Step):(  63:  -2:  -1)
(PID.TID 0000.0001) // RANGE K (Lo:Hi:Step):(   1:   1:   1)
(PID.TID 0000.0001) // =======================================================
(PID.TID 0000.0001) K =   1
(PID.TID 0000.0001) //                I=7       I=17      I=27      I=31      I=41      I=51      I=61
(PID.TID 0000.0001) // |--J--|**0123456|890123456|890123456|890123890|234567890|234567890|234567890|23
(PID.TID 0000.0001) //     63 --.-----------------------------------------------------------------.---
(PID.TID 0000.0001) //     62 --.-----------------------------------------------------------------.---
(PID.TID 0000.0001) //     61 --.-----------------------------------------------------------------.---
(PID.TID 0000.0001) //     60 ........................................................................
(PID.TID 0000.0001) //     59 --.-----------------------------------------------------------------.---
(PID.TID 0000.0001) //     58 --.-----------------------------------------------------------------.---
(PID.TID 0000.0001) //     57 --.-----------------------------------------------------------------.---
(PID.TID 0000.0001) //     56 --.-----------------------------------------------------------------.---
(PID.TID 0000.0001) //     55 --.-----------------------------------------------------------------.---
(PID.TID 0000.0001) //     54 --.-----------------------------------------------------------------.---
(PID.TID 0000.0001) //     53 --.-----------------------------------------------------------------.---
(PID.TID 0000.0001) //     52 --.-----------------------------------------------------------------.---
(PID.TID 0000.0001) //     51 --.-----------------------------------------------------------------.---
(PID.TID 0000.0001) //     50 --.-----------------------------------------------------------------.---
(PID.TID 0000.0001) //     49 --.-----------------------------------------------------------------.---
(PID.TID 0000.0001) //     48 --.-----------------------------------------------------------------.---
(PID.TID 0000.0001) //     47 --.-----------------------------------------------------------------.---
(PID.TID 0000.0001) //     46 --.-----------------------------------------------------------------.---
(PID.TID 0000.0001) //     45 --.-----------------------------------------------------------------.---
(PID.TID 0000.0001) //     44 --.-----------------------------------------------------------------.---
(PID.TID 0000.0001) //     43 --.-----------------------------------------------------------------.---
(PID.TID 0000.0001) //     42 --.-----------------------------------------------------------------.---
(PID.TID 0000.0001) //     41 --.-----------------------------------------------------------------.---
(PID.TID 0000.0001) //     40 --.-----------------------------------------------------------------.---
(PID.TID 0000.0001) //     39 --.-----------------------------------------------------------------.---
(PID.TID 0000.0001) //     38 --.-----------------------------------------------------------------.---
(PID.TID 0000.0001) //     37 --.-----------------------------------------------------------------.---
(PID.TID 0000.0001) //     36 --.-----------------------------------------------------------------.---
(PID.TID 0000.0001) //     35 --.-----------------------------------------------------------------.---
(PID.TID 0000.0001) //     34 --.-----------------------------------------------------------------.---
(PID.TID 0000.0001) //     33 --.-----------------------------------------------------------------.---
(PID.TID 0000.0001) //     32 --.-----------------------------------------------------------------.---
(PID.TID 0000.0001) //     31 --.-----------------------------------------------------------------.---
(PID.TID 0000.0001) //     30 --.-----------------------------------------------------------------.---
(PID.TID 0000.0001) //     29 --.-----------------------------------------------------------------.---
(PID.TID 0000.0001) //     28 --.-----------------------------------------------------------------.---
(PID.TID 0000.0001) //     33 --.-----------------------------------------------------------------.---
(PID.TID 0000.0001) //     32 --.-----------------------------------------------------------------.---
(PID.TID 0000.0001) //     31 --.-----------------------------------------------------------------.---
(PID.TID 0000.0001) //     30 --.-----------------------------------------------------------------.---
(PID.TID 0000.0001) //     29 --.-----------------------------------------------------------------.---
(PID.TID 0000.0001) //     28 --.-----------------------------------------------------------------.---
(PID.TID 0000.0001) //     27 --.-----------------------------------------------------------------.---
(PID.TID 0000.0001) //     26 --.-----------------------------------------------------------------.---
(PID.TID 0000.0001) //     25 --.-----------------------------------------------------------------.---
(PID.TID 0000.0001) //     24 --.-----------------------------------------------------------------.---
(PID.TID 0000.0001) //     23 --.-----------------------------------------------------------------.---
(PID.TID 0000.0001) //     22 --.-----------------------------------------------------------------.---
(PID.TID 0000.0001) //     21 --.-----------------------------------------------------------------.---
(PID.TID 0000.0001) //     20 --.-----------------------------------------------------------------.---
(PID.TID 0000.0001) //     19 --.-----------------------------------------------------------------.---
(PID.TID 0000.0001) //     18 --.-----------------------------------------------------------------.---
(PID.TID 0000.0001) //     17 --.-----------------------------------------------------------------.---
(PID.TID 0000.0001) //     16 --.-----------------------------------------------------------------.---
(PID.TID 0000.0001) //     15 --.-----------------------------------------------------------------.---
(PID.TID 0000.0001) //     14 --.-----------------------------------------------------------------.---
(PID.TID 0000.0001) //     13 --.-----------------------------------------------------------------.---
(PID.TID 0000.0001) //     12 --.-----------------------------------------------------------------.---
(PID.TID 0000.0001) //     11 --.-----------------------------------------------------------------.---
(PID.TID 0000.0001) //     10 --.-----------------------------------------------------------------.---
(PID.TID 0000.0001) //      9 --.-----------------------------------------------------------------.---
(PID.TID 0000.0001) //      8 --.-----------------------------------------------------------------.---
(PID.TID 0000.0001) //      7 --.-----------------------------------------------------------------.---
(PID.TID 0000.0001) //      6 --.-----------------------------------------------------------------.---
(PID.TID 0000.0001) //      5 --.-----------------------------------------------------------------.---
(PID.TID 0000.0001) //      4 --.-----------------------------------------------------------------.---
(PID.TID 0000.0001) //      3 --.-----------------------------------------------------------------.---
(PID.TID 0000.0001) //      2 --.-----------------------------------------------------------------.---
(PID.TID 0000.0001) //      1 --.-----------------------------------------------------------------.---
(PID.TID 0000.0001) //      0 ........................................................................
(PID.TID 0000.0001) //     -1 --.-----------------------------------------------------------------.---
(PID.TID 0000.0001) //     -2 --.-----------------------------------------------------------------.---
(PID.TID 0000.0001) // =======================================================
(PID.TID 0000.0001) // END OF FIELD                                          =
(PID.TID 0000.0001) // =======================================================
(PID.TID 0000.0001) 
(PID.TID 0000.0001) // =======================================================
(PID.TID 0000.0001) // Field hFacW at iteration          1
(PID.TID 0000.0001) // CMIN =          1.000000000000000E+00
(PID.TID 0000.0001) // CMAX =          1.000000000000000E+00
(PID.TID 0000.0001) // CINT =          0.000000000000000E+00
(PID.TID 0000.0001) // SYMBOLS (CMIN->CMAX): -abcdefghijklmnopqrstuvwxyz+
(PID.TID 0000.0001) //                  0.0: .
(PID.TID 0000.0001) // RANGE I (Lo:Hi:Step):(  -2:  63:   1)
(PID.TID 0000.0001) // RANGE J (Lo:Hi:Step):(  63:  -2:  -1)
(PID.TID 0000.0001) // RANGE K (Lo:Hi:Step):(   1:   1:   1)
(PID.TID 0000.0001) // =======================================================
(PID.TID 0000.0001) K =   1
(PID.TID 0000.0001) //                I=7       I=17      I=27      I=31      I=41      I=51      I=61
(PID.TID 0000.0001) // |--J--|**0123456|890123456|890123456|890123890|234567890|234567890|234567890|23
(PID.TID 0000.0001) //     63 --..----------------------------------------------------------------..--
(PID.TID 0000.0001) //     62 --..----------------------------------------------------------------..--
(PID.TID 0000.0001) //     61 --..----------------------------------------------------------------..--
(PID.TID 0000.0001) //     60 ........................................................................
(PID.TID 0000.0001) //     59 --..----------------------------------------------------------------..--
(PID.TID 0000.0001) //     58 --..----------------------------------------------------------------..--
(PID.TID 0000.0001) //     57 --..----------------------------------------------------------------..--
(PID.TID 0000.0001) //     56 --..----------------------------------------------------------------..--
(PID.TID 0000.0001) //     55 --..----------------------------------------------------------------..--
(PID.TID 0000.0001) //     54 --..----------------------------------------------------------------..--
(PID.TID 0000.0001) //     53 --..----------------------------------------------------------------..--
(PID.TID 0000.0001) //     52 --..----------------------------------------------------------------..--
(PID.TID 0000.0001) //     51 --..----------------------------------------------------------------..--
(PID.TID 0000.0001) //     50 --..----------------------------------------------------------------..--
(PID.TID 0000.0001) //     49 --..----------------------------------------------------------------..--
(PID.TID 0000.0001) //     48 --..----------------------------------------------------------------..--
(PID.TID 0000.0001) //     47 --..----------------------------------------------------------------..--
(PID.TID 0000.0001) //     46 --..----------------------------------------------------------------..--
(PID.TID 0000.0001) //     45 --..----------------------------------------------------------------..--
(PID.TID 0000.0001) //     44 --..----------------------------------------------------------------..--
(PID.TID 0000.0001) //     43 --..----------------------------------------------------------------..--
(PID.TID 0000.0001) //     42 --..----------------------------------------------------------------..--
(PID.TID 0000.0001) //     41 --..----------------------------------------------------------------..--
(PID.TID 0000.0001) //     40 --..----------------------------------------------------------------..--
(PID.TID 0000.0001) //     39 --..----------------------------------------------------------------..--
(PID.TID 0000.0001) //     38 --..----------------------------------------------------------------..--
(PID.TID 0000.0001) //     37 --..----------------------------------------------------------------..--
(PID.TID 0000.0001) //     36 --..----------------------------------------------------------------..--
(PID.TID 0000.0001) //     35 --..----------------------------------------------------------------..--
(PID.TID 0000.0001) //     34 --..----------------------------------------------------------------..--
(PID.TID 0000.0001) //     33 --..----------------------------------------------------------------..--
(PID.TID 0000.0001) //     32 --..----------------------------------------------------------------..--
(PID.TID 0000.0001) //     31 --..----------------------------------------------------------------..--
(PID.TID 0000.0001) //     30 --..----------------------------------------------------------------..--
(PID.TID 0000.0001) //     29 --..----------------------------------------------------------------..--
(PID.TID 0000.0001) //     28 --..----------------------------------------------------------------..--
(PID.TID 0000.0001) //     33 --..----------------------------------------------------------------..--
(PID.TID 0000.0001) //     32 --..----------------------------------------------------------------..--
(PID.TID 0000.0001) //     31 --..----------------------------------------------------------------..--
(PID.TID 0000.0001) //     30 --..----------------------------------------------------------------..--
(PID.TID 0000.0001) //     29 --..----------------------------------------------------------------..--
(PID.TID 0000.0001) //     28 --..----------------------------------------------------------------..--
(PID.TID 0000.0001) //     27 --..----------------------------------------------------------------..--
(PID.TID 0000.0001) //     26 --..----------------------------------------------------------------..--
(PID.TID 0000.0001) //     25 --..----------------------------------------------------------------..--
(PID.TID 0000.0001) //     24 --..----------------------------------------------------------------..--
(PID.TID 0000.0001) //     23 --..----------------------------------------------------------------..--
(PID.TID 0000.0001) //     22 --..----------------------------------------------------------------..--
(PID.TID 0000.0001) //     21 --..----------------------------------------------------------------..--
(PID.TID 0000.0001) //     20 --..----------------------------------------------------------------..--
(PID.TID 0000.0001) //     19 --..----------------------------------------------------------------..--
(PID.TID 0000.0001) //     18 --..----------------------------------------------------------------..--
(PID.TID 0000.0001) //     17 --..----------------------------------------------------------------..--
(PID.TID 0000.0001) //     16 --..----------------------------------------------------------------..--
(PID.TID 0000.0001) //     15 --..----------------------------------------------------------------..--
(PID.TID 0000.0001) //     14 --..----------------------------------------------------------------..--
(PID.TID 0000.0001) //     13 --..----------------------------------------------------------------..--
(PID.TID 0000.0001) //     12 --..----------------------------------------------------------------..--
(PID.TID 0000.0001) //     11 --..----------------------------------------------------------------..--
(PID.TID 0000.0001) //     10 --..----------------------------------------------------------------..--
(PID.TID 0000.0001) //      9 --..----------------------------------------------------------------..--
(PID.TID 0000.0001) //      8 --..----------------------------------------------------------------..--
(PID.TID 0000.0001) //      7 --..----------------------------------------------------------------..--
(PID.TID 0000.0001) //      6 --..----------------------------------------------------------------..--
(PID.TID 0000.0001) //      5 --..----------------------------------------------------------------..--
(PID.TID 0000.0001) //      4 --..----------------------------------------------------------------..--
(PID.TID 0000.0001) //      3 --..----------------------------------------------------------------..--
(PID.TID 0000.0001) //      2 --..----------------------------------------------------------------..--
(PID.TID 0000.0001) //      1 --..----------------------------------------------------------------..--
(PID.TID 0000.0001) //      0 ........................................................................
(PID.TID 0000.0001) //     -1 --..----------------------------------------------------------------..--
(PID.TID 0000.0001) //     -2 --..----------------------------------------------------------------..--
(PID.TID 0000.0001) // =======================================================
(PID.TID 0000.0001) // END OF FIELD                                          =
(PID.TID 0000.0001) // =======================================================
(PID.TID 0000.0001) 
(PID.TID 0000.0001) // =======================================================
(PID.TID 0000.0001) // Field hFacS at iteration          1
(PID.TID 0000.0001) // CMIN =          1.000000000000000E+00
(PID.TID 0000.0001) // CMAX =          1.000000000000000E+00
(PID.TID 0000.0001) // CINT =          0.000000000000000E+00
(PID.TID 0000.0001) // SYMBOLS (CMIN->CMAX): -abcdefghijklmnopqrstuvwxyz+
(PID.TID 0000.0001) //                  0.0: .
(PID.TID 0000.0001) // RANGE I (Lo:Hi:Step):(  -2:  63:   1)
(PID.TID 0000.0001) // RANGE J (Lo:Hi:Step):(  63:  -2:  -1)
(PID.TID 0000.0001) // RANGE K (Lo:Hi:Step):(   1:   1:   1)
(PID.TID 0000.0001) // =======================================================
(PID.TID 0000.0001) K =   1
(PID.TID 0000.0001) //                I=7       I=17      I=27      I=31      I=41      I=51      I=61
(PID.TID 0000.0001) // |--J--|**0123456|890123456|890123456|890123890|234567890|234567890|234567890|23
(PID.TID 0000.0001) //     63 --.-----------------------------------------------------------------.---
(PID.TID 0000.0001) //     62 --.-----------------------------------------------------------------.---
(PID.TID 0000.0001) //     61 ........................................................................
(PID.TID 0000.0001) //     60 ........................................................................
(PID.TID 0000.0001) //     59 --.-----------------------------------------------------------------.---
(PID.TID 0000.0001) //     58 --.-----------------------------------------------------------------.---
(PID.TID 0000.0001) //     57 --.-----------------------------------------------------------------.---
(PID.TID 0000.0001) //     56 --.-----------------------------------------------------------------.---
(PID.TID 0000.0001) //     55 --.-----------------------------------------------------------------.---
(PID.TID 0000.0001) //     54 --.-----------------------------------------------------------------.---
(PID.TID 0000.0001) //     53 --.-----------------------------------------------------------------.---
(PID.TID 0000.0001) //     52 --.-----------------------------------------------------------------.---
(PID.TID 0000.0001) //     51 --.-----------------------------------------------------------------.---
(PID.TID 0000.0001) //     50 --.-----------------------------------------------------------------.---
(PID.TID 0000.0001) //     49 --.-----------------------------------------------------------------.---
(PID.TID 0000.0001) //     48 --.-----------------------------------------------------------------.---
(PID.TID 0000.0001) //     47 --.-----------------------------------------------------------------.---
(PID.TID 0000.0001) //     46 --.-----------------------------------------------------------------.---
(PID.TID 0000.0001) //     45 --.-----------------------------------------------------------------.---
(PID.TID 0000.0001) //     44 --.-----------------------------------------------------------------.---
(PID.TID 0000.0001) //     43 --.-----------------------------------------------------------------.---
(PID.TID 0000.0001) //     42 --.-----------------------------------------------------------------.---
(PID.TID 0000.0001) //     41 --.-----------------------------------------------------------------.---
(PID.TID 0000.0001) //     40 --.-----------------------------------------------------------------.---
(PID.TID 0000.0001) //     39 --.-----------------------------------------------------------------.---
(PID.TID 0000.0001) //     38 --.-----------------------------------------------------------------.---
(PID.TID 0000.0001) //     37 --.-----------------------------------------------------------------.---
(PID.TID 0000.0001) //     36 --.-----------------------------------------------------------------.---
(PID.TID 0000.0001) //     35 --.-----------------------------------------------------------------.---
(PID.TID 0000.0001) //     34 --.-----------------------------------------------------------------.---
(PID.TID 0000.0001) //     33 --.-----------------------------------------------------------------.---
(PID.TID 0000.0001) //     32 --.-----------------------------------------------------------------.---
(PID.TID 0000.0001) //     31 --.-----------------------------------------------------------------.---
(PID.TID 0000.0001) //     30 --.-----------------------------------------------------------------.---
(PID.TID 0000.0001) //     29 --.-----------------------------------------------------------------.---
(PID.TID 0000.0001) //     28 --.-----------------------------------------------------------------.---
(PID.TID 0000.0001) //     33 --.-----------------------------------------------------------------.---
(PID.TID 0000.0001) //     32 --.-----------------------------------------------------------------.---
(PID.TID 0000.0001) //     31 --.-----------------------------------------------------------------.---
(PID.TID 0000.0001) //     30 --.-----------------------------------------------------------------.---
(PID.TID 0000.0001) //     29 --.-----------------------------------------------------------------.---
(PID.TID 0000.0001) //     28 --.-----------------------------------------------------------------.---
(PID.TID 0000.0001) //     27 --.-----------------------------------------------------------------.---
(PID.TID 0000.0001) //     26 --.-----------------------------------------------------------------.---
(PID.TID 0000.0001) //     25 --.-----------------------------------------------------------------.---
(PID.TID 0000.0001) //     24 --.-----------------------------------------------------------------.---
(PID.TID 0000.0001) //     23 --.-----------------------------------------------------------------.---
(PID.TID 0000.0001) //     22 --.-----------------------------------------------------------------.---
(PID.TID 0000.0001) //     21 --.-----------------------------------------------------------------.---
(PID.TID 0000.0001) //     20 --.-----------------------------------------------------------------.---
(PID.TID 0000.0001) //     19 --.-----------------------------------------------------------------.---
(PID.TID 0000.0001) //     18 --.-----------------------------------------------------------------.---
(PID.TID 0000.0001) //     17 --.-----------------------------------------------------------------.---
(PID.TID 0000.0001) //     16 --.-----------------------------------------------------------------.---
(PID.TID 0000.0001) //     15 --.-----------------------------------------------------------------.---
(PID.TID 0000.0001) //     14 --.-----------------------------------------------------------------.---
(PID.TID 0000.0001) //     13 --.-----------------------------------------------------------------.---
(PID.TID 0000.0001) //     12 --.-----------------------------------------------------------------.---
(PID.TID 0000.0001) //     11 --.-----------------------------------------------------------------.---
(PID.TID 0000.0001) //     10 --.-----------------------------------------------------------------.---
(PID.TID 0000.0001) //      9 --.-----------------------------------------------------------------.---
(PID.TID 0000.0001) //      8 --.-----------------------------------------------------------------.---
(PID.TID 0000.0001) //      7 --.-----------------------------------------------------------------.---
(PID.TID 0000.0001) //      6 --.-----------------------------------------------------------------.---
(PID.TID 0000.0001) //      5 --.-----------------------------------------------------------------.---
(PID.TID 0000.0001) //      4 --.-----------------------------------------------------------------.---
(PID.TID 0000.0001) //      3 --.-----------------------------------------------------------------.---
(PID.TID 0000.0001) //      2 --.-----------------------------------------------------------------.---
(PID.TID 0000.0001) //      1 ........................................................................
(PID.TID 0000.0001) //      0 ........................................................................
(PID.TID 0000.0001) //     -1 --.-----------------------------------------------------------------.---
(PID.TID 0000.0001) //     -2 --.-----------------------------------------------------------------.---
(PID.TID 0000.0001) // =======================================================
(PID.TID 0000.0001) // END OF FIELD                                          =
(PID.TID 0000.0001) // =======================================================
(PID.TID 0000.0001) 
(PID.TID 0000.0001) %MON fCori_max                    =   7.1620103651647E-05
(PID.TID 0000.0001) %MON fCori_min                    =  -7.1620103651647E-05
(PID.TID 0000.0001) %MON fCori_mean                   =   1.3552527156069E-22
(PID.TID 0000.0001) %MON fCori_sd                     =   4.2772026192958E-05
(PID.TID 0000.0001) %MON fCoriG_max                   =   7.0512700988683E-05
(PID.TID 0000.0001) %MON fCoriG_min                   =  -7.2722052166430E-05
(PID.TID 0000.0001) %MON fCoriG_mean                  =  -1.2325771553632E-06
(PID.TID 0000.0001) %MON fCoriG_sd                    =   4.3131072516752E-05
(PID.TID 0000.0001)  PACKAGE_INIT: opening data.pkg
(PID.TID 0000.0001)  OPEN_COPY_DATA_FILE: opening file data.pkg
(PID.TID 0000.0001) // =======================================================
(PID.TID 0000.0001) // Parameter file "data.pkg"
(PID.TID 0000.0001) // =======================================================
(PID.TID 0000.0001) ># Packages
(PID.TID 0000.0001) > &PACKAGES
(PID.TID 0000.0001) > &
(PID.TID 0000.0001) 
(PID.TID 0000.0001)  PACKAGE_INIT: finished reading data.pkg
(PID.TID 0000.0001) // CG2D normalisation factor =          0.4351778479699497620240833E-03
(PID.TID 0000.0001) 
(PID.TID 0000.0001) // =======================================================
(PID.TID 0000.0001) // Model configuration
(PID.TID 0000.0001) // =======================================================
(PID.TID 0000.0001) //
(PID.TID 0000.0001) // "Physical" paramters ( PARM01 in namelist )
(PID.TID 0000.0001) //
(PID.TID 0000.0001) tRef =   /* Reference temperature profile ( oC or oK ) */
(PID.TID 0000.0001)                 2.000000000000000E+01,      /* K =  1 */
(PID.TID 0000.0001)                 1.000000000000000E+01,      /* K =  2 */
(PID.TID 0000.0001)                 8.000000000000000E+00,      /* K =  3 */
(PID.TID 0000.0001)                 6.000000000000000E+00       /* K =  4 */
(PID.TID 0000.0001)     ;
(PID.TID 0000.0001) sRef =   /* Reference salinity profile ( ppt ) */
(PID.TID 0000.0001)     4 @  1.000000000000000E+01              /* K =  1:  4 */
(PID.TID 0000.0001)     ;
(PID.TID 0000.0001) viscAh =   /* Lateral eddy viscosity ( m^2/s ) */
(PID.TID 0000.0001)                 4.000000000000000E+02
(PID.TID 0000.0001)     ;
(PID.TID 0000.0001) viscAh =   /* Lateral biharmonic viscosity ( m^4/s ) */
(PID.TID 0000.0001)                 0.000000000000000E+00
(PID.TID 0000.0001)     ;
(PID.TID 0000.0001) no_slip_sides =  /* Viscous BCs: No-slip sides */
(PID.TID 0000.0001)                   F
(PID.TID 0000.0001)     ;
(PID.TID 0000.0001) viscAz =   /* Vertical eddy viscosity ( m^2/s ) */
(PID.TID 0000.0001)                 1.000000000000000E-02
(PID.TID 0000.0001)     ;
(PID.TID 0000.0001) viscAr =   /* Vertical eddy viscosity ( units of r^2/s ) */
(PID.TID 0000.0001)                 1.000000000000000E-02
(PID.TID 0000.0001)     ;
(PID.TID 0000.0001) diffKhT =   /* Laplacian diffusion of heat laterally ( m^2/s ) */
(PID.TID 0000.0001)                 4.000000000000000E+02
(PID.TID 0000.0001)     ;
(PID.TID 0000.0001) diffK4T =   /* Bihaarmonic diffusion of heat laterally ( m^4/s ) */
(PID.TID 0000.0001)                 0.000000000000000E+00
(PID.TID 0000.0001)     ;
(PID.TID 0000.0001) diffKzT =   /* Laplacian diffusion of heat vertically ( m^2/s ) */
(PID.TID 0000.0001)                 1.000000000000000E-02
(PID.TID 0000.0001)     ;
(PID.TID 0000.0001) diffKrT =   /* Laplacian diffusion of heat vertically ( m^2/s ) */
(PID.TID 0000.0001)                 1.000000000000000E-02
(PID.TID 0000.0001)     ;
(PID.TID 0000.0001) diffKhS =   /* Laplacian diffusion of salt laterally ( m^2/s ) */
(PID.TID 0000.0001)                 0.000000000000000E+00
(PID.TID 0000.0001)     ;
(PID.TID 0000.0001) diffK4S =   /* Bihaarmonic diffusion of salt laterally ( m^4/s ) */
(PID.TID 0000.0001)                 0.000000000000000E+00
(PID.TID 0000.0001)     ;
(PID.TID 0000.0001) diffKzS =   /* Laplacian diffusion of salt vertically ( m^2/s ) */
(PID.TID 0000.0001)                 1.234567000000000E+05
(PID.TID 0000.0001)     ;
(PID.TID 0000.0001) diffKrS =   /* Laplacian diffusion of salt vertically ( m^2/s ) */
(PID.TID 0000.0001)                 0.000000000000000E+00
(PID.TID 0000.0001)     ;
(PID.TID 0000.0001) tAlpha =   /* Linear EOS thermal expansion coefficient ( 1/degree ) */
(PID.TID 0000.0001)                 2.000000000000000E-04
(PID.TID 0000.0001)     ;
(PID.TID 0000.0001) sBeta =   /* Linear EOS haline contraction coefficient ( 1/ppt ) */
(PID.TID 0000.0001)                 0.000000000000000E+00
(PID.TID 0000.0001)     ;
(PID.TID 0000.0001) rhonil =   /* Reference density ( kg/m^3 ) */
(PID.TID 0000.0001)                 9.998000000000000E+02
(PID.TID 0000.0001)     ;
(PID.TID 0000.0001) rhoConst =   /* Reference density ( kg/m^3 ) */
(PID.TID 0000.0001)                 9.998000000000000E+02
(PID.TID 0000.0001)     ;
(PID.TID 0000.0001) gravity =   /* Gravitational acceleration ( m/s^2 ) */
(PID.TID 0000.0001)                 9.810000000000000E+00
(PID.TID 0000.0001)     ;
(PID.TID 0000.0001) gBaro =   /* Barotropic gravity ( m/s^2 ) */
(PID.TID 0000.0001)                 9.810000000000000E+00
(PID.TID 0000.0001)     ;
(PID.TID 0000.0001) f0 =   /* Reference coriolis parameter ( 1/s ) */
(PID.TID 0000.0001)                 1.000000000000000E-04
(PID.TID 0000.0001)     ;
(PID.TID 0000.0001) beta =   /* Beta ( 1/(m.s) ) */
(PID.TID 0000.0001)                 9.999999999999999E-12
(PID.TID 0000.0001)     ;
(PID.TID 0000.0001) freeSurfFac =   /* Implicit free surface factor */
(PID.TID 0000.0001)                 1.000000000000000E+00
(PID.TID 0000.0001)     ;
(PID.TID 0000.0001) implicitFreeSurface =   /* Implicit free surface on/off flag */
(PID.TID 0000.0001)                   T
(PID.TID 0000.0001)     ;
(PID.TID 0000.0001) rigidLid =   /* Rigid lid on/off flag */
(PID.TID 0000.0001)                   F
(PID.TID 0000.0001)     ;
(PID.TID 0000.0001) implicSurfPress =   /* Surface Pressure implicit factor (0-1)*/
(PID.TID 0000.0001)                 1.000000000000000E+00
(PID.TID 0000.0001)     ;
(PID.TID 0000.0001) implicDiv2Dflow =   /* Barot. Flow Div. implicit factor (0-1)*/
(PID.TID 0000.0001)                 1.000000000000000E+00
(PID.TID 0000.0001)     ;
(PID.TID 0000.0001) staggerTimeStep =   /* Stagger time stepping on/off flag */
(PID.TID 0000.0001)                   F
(PID.TID 0000.0001)     ;
(PID.TID 0000.0001) momStepping =  /* Momentum equation on/off flag */
(PID.TID 0000.0001)                   T
(PID.TID 0000.0001)     ;
(PID.TID 0000.0001) momAdvection =  /* Momentum advection on/off flag */
(PID.TID 0000.0001)                   T
(PID.TID 0000.0001)     ;
(PID.TID 0000.0001) momViscosity =  /* Momentum viscosity on/off flag */
(PID.TID 0000.0001)                   T
(PID.TID 0000.0001)     ;
(PID.TID 0000.0001) useCoriolis =  /* Coriolis on/off flag */
(PID.TID 0000.0001)                   T
(PID.TID 0000.0001)     ;
(PID.TID 0000.0001) momForcing =  /* Momentum forcing on/off flag */
(PID.TID 0000.0001)                   T
(PID.TID 0000.0001)     ;
(PID.TID 0000.0001) momPressureForcing =  /* Momentum pressure term on/off flag */
(PID.TID 0000.0001)                   T
(PID.TID 0000.0001)     ;
(PID.TID 0000.0001) tempStepping =  /* Temperature equation on/off flag */
(PID.TID 0000.0001)                   T
(PID.TID 0000.0001)     ;
(PID.TID 0000.0001) nonHydrostatic =  /* Non-Hydrostatic on/off flag */
(PID.TID 0000.0001)                   F
(PID.TID 0000.0001)     ;
(PID.TID 0000.0001) //
(PID.TID 0000.0001) // Elliptic solver(s) paramters ( PARM02 in namelist )
(PID.TID 0000.0001) //
(PID.TID 0000.0001) cg2dMaxIters =   /* Upper limit on 2d con. grad iterations  */
(PID.TID 0000.0001)                    1000
(PID.TID 0000.0001)     ;
(PID.TID 0000.0001) cg2dChkResFreq =   /* 2d con. grad convergence test frequency */
(PID.TID 0000.0001)                       1
(PID.TID 0000.0001)     ;
(PID.TID 0000.0001) cg2dTargetResidual =   /* 2d con. grad target residual  */
(PID.TID 0000.0001)                 1.000000000000000E-13
(PID.TID 0000.0001)     ;
(PID.TID 0000.0001) //
(PID.TID 0000.0001) // Time stepping paramters ( PARM03 in namelist )
(PID.TID 0000.0001) //
(PID.TID 0000.0001) nIter0 =   /* Base timestep number  */
(PID.TID 0000.0001)                       0
(PID.TID 0000.0001)     ;
(PID.TID 0000.0001) nTimeSteps =   /* Number of timesteps */
(PID.TID 0000.0001)                      10
(PID.TID 0000.0001)     ;
(PID.TID 0000.0001) deltatTmom =   /* Momentum equation timestep ( s ) */
(PID.TID 0000.0001)                 1.200000000000000E+03
(PID.TID 0000.0001)     ;
(PID.TID 0000.0001) deltatTtracer =   /* Tracer equation timestep ( s ) */
(PID.TID 0000.0001)                 1.200000000000000E+03
(PID.TID 0000.0001)     ;
(PID.TID 0000.0001) deltatTClock  =   /* Model clock timestep ( s ) */
(PID.TID 0000.0001)                 1.200000000000000E+03
(PID.TID 0000.0001)     ;
(PID.TID 0000.0001) cAdjFreq =   /* Convective adjustment interval ( s ) */
(PID.TID 0000.0001)                 0.000000000000000E+00
(PID.TID 0000.0001)     ;
(PID.TID 0000.0001) abeps =   /* Adams-Bashforth stabilizing weight */
(PID.TID 0000.0001)                 1.000000000000000E-01
(PID.TID 0000.0001)     ;
(PID.TID 0000.0001) tauCD =   /* CD coupling time-scale ( s ) */
(PID.TID 0000.0001)                 1.200000000000000E+03
(PID.TID 0000.0001)     ;
(PID.TID 0000.0001) rCD =   /* Normalised CD coupling parameter */
(PID.TID 0000.0001)                 0.000000000000000E+00
(PID.TID 0000.0001)     ;
(PID.TID 0000.0001) startTime =   /* Run start time ( s ). */
(PID.TID 0000.0001)                 0.000000000000000E+00
(PID.TID 0000.0001)     ;
(PID.TID 0000.0001) endTime =   /* Integration ending time ( s ). */
(PID.TID 0000.0001)                 1.200000000000000E+04
(PID.TID 0000.0001)     ;
(PID.TID 0000.0001) pChkPtFreq =   /* Permanent restart/checkpoint file interval ( s ). */
(PID.TID 0000.0001)                 1.700000000000000E+04
(PID.TID 0000.0001)     ;
(PID.TID 0000.0001) chkPtFreq =   /* Rolling restart/checkpoint file interval ( s ). */
(PID.TID 0000.0001)                 0.000000000000000E+00
(PID.TID 0000.0001)     ;
(PID.TID 0000.0001) dumpFreq =   /* Model state write out interval ( s ). */
(PID.TID 0000.0001)                 2.592000000000000E+06
(PID.TID 0000.0001)     ;
(PID.TID 0000.0001) //
(PID.TID 0000.0001) // Gridding paramters ( PARM04 in namelist )
(PID.TID 0000.0001) //
(PID.TID 0000.0001) usingCartesianGrid =   /* Cartesian coordinates flag ( True / False ) */
(PID.TID 0000.0001)                   F
(PID.TID 0000.0001)     ;
(PID.TID 0000.0001) usingSphericalPolarGrid =   /* Spherical coordinates flag ( True / False ) */
(PID.TID 0000.0001)                   T
(PID.TID 0000.0001)     ;
(PID.TID 0000.0001) groundAtK1 =   /* Lower Boundary (ground) at the surface(k=1) ( T / F ) */
(PID.TID 0000.0001)                   F
(PID.TID 0000.0001)     ;
(PID.TID 0000.0001) Ro_SeaLevel =   /* r(1) ( units of r ) */
(PID.TID 0000.0001)                 0.000000000000000E+00
(PID.TID 0000.0001)     ;
(PID.TID 0000.0001) rkFac =   /* minus Vertical index orientation  */
(PID.TID 0000.0001)                 1.000000000000000E+00
(PID.TID 0000.0001)     ;
(PID.TID 0000.0001) horiVertRatio =   /* Ratio on units : Horiz - Vertical */
(PID.TID 0000.0001)                 1.000000000000000E+00
(PID.TID 0000.0001)     ;
(PID.TID 0000.0001) delZ =   /* W spacing ( m ) */
(PID.TID 0000.0001)     4 @  5.000000000000000E+02              /* K =  1:  4 */
(PID.TID 0000.0001)     ;
(PID.TID 0000.0001) delP =   /* W spacing ( Pa ) */
(PID.TID 0000.0001)     4 @  1.234567000000000E+05              /* K =  1:  4 */
(PID.TID 0000.0001)     ;
(PID.TID 0000.0001) delR =   /* W spacing ( units of r ) */
(PID.TID 0000.0001)     4 @  5.000000000000000E+02              /* K =  1:  4 */
(PID.TID 0000.0001)     ;
(PID.TID 0000.0001) delX =   /* U spacing ( m - cartesian, degrees - spherical ) */
(PID.TID 0000.0001)    60 @  1.000000000000000E+00              /* I =  1: 60 */
(PID.TID 0000.0001)     ;
(PID.TID 0000.0001) delY =   /* V spacing ( m - cartesian, degrees - spherical ) */
(PID.TID 0000.0001)    60 @  1.000000000000000E+00              /* J =  1: 60 */
(PID.TID 0000.0001)     ;
(PID.TID 0000.0001) phiMin =    /* South edge (ignored - cartesian, degrees - spherical ) */
(PID.TID 0000.0001)                -3.000000000000000E+01
(PID.TID 0000.0001)     ;
(PID.TID 0000.0001) thetaMin =    /* West edge ( ignored - cartesian, degrees - spherical ) */
(PID.TID 0000.0001)                 0.000000000000000E+00
(PID.TID 0000.0001)     ;
(PID.TID 0000.0001) rSphere =    /* Radius ( ignored - cartesian, m - spherical ) */
(PID.TID 0000.0001)                 6.370000000000000E+06
(PID.TID 0000.0001)     ;
(PID.TID 0000.0001) xcoord =   /* P-point X coord ( m - cartesian, degrees - spherical ) */
(PID.TID 0000.0001)                 5.000000000000000E-01,      /* I =  1 */
(PID.TID 0000.0001)                 1.500000000000000E+00,      /* I =  2 */
(PID.TID 0000.0001)                 2.500000000000000E+00,      /* I =  3 */
(PID.TID 0000.0001)                 3.500000000000000E+00,      /* I =  4 */
(PID.TID 0000.0001)                 4.500000000000000E+00,      /* I =  5 */
(PID.TID 0000.0001)                 5.500000000000000E+00,      /* I =  6 */
(PID.TID 0000.0001)                 6.500000000000000E+00,      /* I =  7 */
(PID.TID 0000.0001)                 7.500000000000000E+00,      /* I =  8 */
(PID.TID 0000.0001)                 8.500000000000000E+00,      /* I =  9 */
(PID.TID 0000.0001)                 9.500000000000000E+00,      /* I = 10 */
(PID.TID 0000.0001)                 1.050000000000000E+01,      /* I = 11 */
(PID.TID 0000.0001)                 1.150000000000000E+01,      /* I = 12 */
(PID.TID 0000.0001)                 1.250000000000000E+01,      /* I = 13 */
(PID.TID 0000.0001)                 1.350000000000000E+01,      /* I = 14 */
(PID.TID 0000.0001)                 1.450000000000000E+01,      /* I = 15 */
(PID.TID 0000.0001)                 1.550000000000000E+01,      /* I = 16 */
(PID.TID 0000.0001)                 1.650000000000000E+01,      /* I = 17 */
(PID.TID 0000.0001)                 1.750000000000000E+01,      /* I = 18 */
(PID.TID 0000.0001)                 1.850000000000000E+01,      /* I = 19 */
(PID.TID 0000.0001)                 1.950000000000000E+01,      /* I = 20 */
(PID.TID 0000.0001)                 2.050000000000000E+01,      /* I = 21 */
(PID.TID 0000.0001)                 2.150000000000000E+01,      /* I = 22 */
(PID.TID 0000.0001)                 2.250000000000000E+01,      /* I = 23 */
(PID.TID 0000.0001)                 2.350000000000000E+01,      /* I = 24 */
(PID.TID 0000.0001)                 2.450000000000000E+01,      /* I = 25 */
(PID.TID 0000.0001)                 2.550000000000000E+01,      /* I = 26 */
(PID.TID 0000.0001)                 2.650000000000000E+01,      /* I = 27 */
(PID.TID 0000.0001)                 2.750000000000000E+01,      /* I = 28 */
(PID.TID 0000.0001)                 2.850000000000000E+01,      /* I = 29 */
(PID.TID 0000.0001)                 2.950000000000000E+01,      /* I = 30 */
(PID.TID 0000.0001)                 3.050000000000000E+01,      /* I = 31 */
(PID.TID 0000.0001)                 3.150000000000000E+01,      /* I = 32 */
(PID.TID 0000.0001)                 3.250000000000000E+01,      /* I = 33 */
(PID.TID 0000.0001)                 3.350000000000000E+01,      /* I = 34 */
(PID.TID 0000.0001)                 3.450000000000000E+01,      /* I = 35 */
(PID.TID 0000.0001)                 3.550000000000000E+01,      /* I = 36 */
(PID.TID 0000.0001)                 3.650000000000000E+01,      /* I = 37 */
(PID.TID 0000.0001)                 3.750000000000000E+01,      /* I = 38 */
(PID.TID 0000.0001)                 3.850000000000000E+01,      /* I = 39 */
(PID.TID 0000.0001)                 3.950000000000000E+01,      /* I = 40 */
(PID.TID 0000.0001)                 4.050000000000000E+01,      /* I = 41 */
(PID.TID 0000.0001)                 4.150000000000000E+01,      /* I = 42 */
(PID.TID 0000.0001)                 4.250000000000000E+01,      /* I = 43 */
(PID.TID 0000.0001)                 4.350000000000000E+01,      /* I = 44 */
(PID.TID 0000.0001)                 4.450000000000000E+01,      /* I = 45 */
(PID.TID 0000.0001)                 4.550000000000000E+01,      /* I = 46 */
(PID.TID 0000.0001)                 4.650000000000000E+01,      /* I = 47 */
(PID.TID 0000.0001)                 4.750000000000000E+01,      /* I = 48 */
(PID.TID 0000.0001)                 4.850000000000000E+01,      /* I = 49 */
(PID.TID 0000.0001)                 4.950000000000000E+01,      /* I = 50 */
(PID.TID 0000.0001)                 5.050000000000000E+01,      /* I = 51 */
(PID.TID 0000.0001)                 5.150000000000000E+01,      /* I = 52 */
(PID.TID 0000.0001)                 5.250000000000000E+01,      /* I = 53 */
(PID.TID 0000.0001)                 5.350000000000000E+01,      /* I = 54 */
(PID.TID 0000.0001)                 5.450000000000000E+01,      /* I = 55 */
(PID.TID 0000.0001)                 5.550000000000000E+01,      /* I = 56 */
(PID.TID 0000.0001)                 5.650000000000000E+01,      /* I = 57 */
(PID.TID 0000.0001)                 5.750000000000000E+01,      /* I = 58 */
(PID.TID 0000.0001)                 5.850000000000000E+01,      /* I = 59 */
(PID.TID 0000.0001)                 5.950000000000000E+01       /* I = 60 */
(PID.TID 0000.0001)     ;
(PID.TID 0000.0001) ycoord =   /* P-point Y coord ( m - cartesian, degrees - spherical ) */
(PID.TID 0000.0001)                -2.950000000000000E+01,      /* J =  1 */
(PID.TID 0000.0001)                -2.850000000000000E+01,      /* J =  2 */
(PID.TID 0000.0001)                -2.750000000000000E+01,      /* J =  3 */
(PID.TID 0000.0001)                -2.650000000000000E+01,      /* J =  4 */
(PID.TID 0000.0001)                -2.550000000000000E+01,      /* J =  5 */
(PID.TID 0000.0001)                -2.450000000000000E+01,      /* J =  6 */
(PID.TID 0000.0001)                -2.350000000000000E+01,      /* J =  7 */
(PID.TID 0000.0001)                -2.250000000000000E+01,      /* J =  8 */
(PID.TID 0000.0001)                -2.150000000000000E+01,      /* J =  9 */
(PID.TID 0000.0001)                -2.050000000000000E+01,      /* J = 10 */
(PID.TID 0000.0001)                -1.950000000000000E+01,      /* J = 11 */
(PID.TID 0000.0001)                -1.850000000000000E+01,      /* J = 12 */
(PID.TID 0000.0001)                -1.750000000000000E+01,      /* J = 13 */
(PID.TID 0000.0001)                -1.650000000000000E+01,      /* J = 14 */
(PID.TID 0000.0001)                -1.550000000000000E+01,      /* J = 15 */
(PID.TID 0000.0001)                -1.450000000000000E+01,      /* J = 16 */
(PID.TID 0000.0001)                -1.350000000000000E+01,      /* J = 17 */
(PID.TID 0000.0001)                -1.250000000000000E+01,      /* J = 18 */
(PID.TID 0000.0001)                -1.150000000000000E+01,      /* J = 19 */
(PID.TID 0000.0001)                -1.050000000000000E+01,      /* J = 20 */
(PID.TID 0000.0001)                -9.500000000000000E+00,      /* J = 21 */
(PID.TID 0000.0001)                -8.500000000000000E+00,      /* J = 22 */
(PID.TID 0000.0001)                -7.500000000000000E+00,      /* J = 23 */
(PID.TID 0000.0001)                -6.500000000000000E+00,      /* J = 24 */
(PID.TID 0000.0001)                -5.500000000000000E+00,      /* J = 25 */
(PID.TID 0000.0001)                -4.500000000000000E+00,      /* J = 26 */
(PID.TID 0000.0001)                -3.500000000000000E+00,      /* J = 27 */
(PID.TID 0000.0001)                -2.500000000000000E+00,      /* J = 28 */
(PID.TID 0000.0001)                -1.500000000000000E+00,      /* J = 29 */
(PID.TID 0000.0001)                -5.000000000000000E-01,      /* J = 30 */
(PID.TID 0000.0001)                 5.000000000000000E-01,      /* J = 31 */
(PID.TID 0000.0001)                 1.500000000000000E+00,      /* J = 32 */
(PID.TID 0000.0001)                 2.500000000000000E+00,      /* J = 33 */
(PID.TID 0000.0001)                 3.500000000000000E+00,      /* J = 34 */
(PID.TID 0000.0001)                 4.500000000000000E+00,      /* J = 35 */
(PID.TID 0000.0001)                 5.500000000000000E+00,      /* J = 36 */
(PID.TID 0000.0001)                 6.500000000000000E+00,      /* J = 37 */
(PID.TID 0000.0001)                 7.500000000000000E+00,      /* J = 38 */
(PID.TID 0000.0001)                 8.500000000000000E+00,      /* J = 39 */
(PID.TID 0000.0001)                 9.500000000000000E+00,      /* J = 40 */
(PID.TID 0000.0001)                 1.050000000000000E+01,      /* J = 41 */
(PID.TID 0000.0001)                 1.150000000000000E+01,      /* J = 42 */
(PID.TID 0000.0001)                 1.250000000000000E+01,      /* J = 43 */
(PID.TID 0000.0001)                 1.350000000000000E+01,      /* J = 44 */
(PID.TID 0000.0001)                 1.450000000000000E+01,      /* J = 45 */
(PID.TID 0000.0001)                 1.550000000000000E+01,      /* J = 46 */
(PID.TID 0000.0001)                 1.650000000000000E+01,      /* J = 47 */
(PID.TID 0000.0001)                 1.750000000000000E+01,      /* J = 48 */
(PID.TID 0000.0001)                 1.850000000000000E+01,      /* J = 49 */
(PID.TID 0000.0001)                 1.950000000000000E+01,      /* J = 50 */
(PID.TID 0000.0001)                 2.050000000000000E+01,      /* J = 51 */
(PID.TID 0000.0001)                 2.150000000000000E+01,      /* J = 52 */
(PID.TID 0000.0001)                 2.250000000000000E+01,      /* J = 53 */
(PID.TID 0000.0001)                 2.350000000000000E+01,      /* J = 54 */
(PID.TID 0000.0001)                 2.450000000000000E+01,      /* J = 55 */
(PID.TID 0000.0001)                 2.550000000000000E+01,      /* J = 56 */
(PID.TID 0000.0001)                 2.650000000000000E+01,      /* J = 57 */
(PID.TID 0000.0001)                 2.750000000000000E+01,      /* J = 58 */
(PID.TID 0000.0001)                 2.850000000000000E+01,      /* J = 59 */
(PID.TID 0000.0001)                 2.950000000000000E+01       /* J = 60 */
(PID.TID 0000.0001)     ;
(PID.TID 0000.0001) rcoord =   /* P-point R coordinate (  units of r ) */
(PID.TID 0000.0001)                -2.500000000000000E+02,      /* K =  1 */
(PID.TID 0000.0001)                -7.500000000000000E+02,      /* K =  2 */
(PID.TID 0000.0001)                -1.250000000000000E+03,      /* K =  3 */
(PID.TID 0000.0001)                -1.750000000000000E+03       /* K =  4 */
(PID.TID 0000.0001)     ;
(PID.TID 0000.0001) dxF =  /* dxF(:,1,:,1) ( m - cartesian, degrees - spherical ) */
(PID.TID 0000.0001)    60 @  9.676394719215337E+04              /* I =  1: 60 */
(PID.TID 0000.0001)     ;
(PID.TID 0000.0001) dxF =  /* dxF(1,:,1,:) ( m - cartesian, degrees - spherical ) */
(PID.TID 0000.0001)                 9.676394719215337E+04,      /* J =  1 */
(PID.TID 0000.0001)                 9.770466612429133E+04,      /* J =  2 */
(PID.TID 0000.0001)                 9.861562326864147E+04,      /* J =  3 */
(PID.TID 0000.0001)                 9.949654113883300E+04,      /* J =  4 */
(PID.TID 0000.0001)                 1.003471513987490E+05,      /* J =  5 */
(PID.TID 0000.0001)                 1.011671949442642E+05,      /* J =  6 */
(PID.TID 0000.0001)                 1.019564219821708E+05,      /* J =  7 */
(PID.TID 0000.0001)                 1.027145921062676E+05,      /* J =  8 */
(PID.TID 0000.0001)                 1.034414743705903E+05,      /* J =  9 */
(PID.TID 0000.0001)                 1.041368473597596E+05,      /* J = 10 */
(PID.TID 0000.0001)                 1.048004992564268E+05,      /* J = 11 */
(PID.TID 0000.0001)                 1.054322279057953E+05,      /* J = 12 */
(PID.TID 0000.0001)                 1.060318408771987E+05,      /* J = 13 */
(PID.TID 0000.0001)                 1.065991555227174E+05,      /* J = 14 */
(PID.TID 0000.0001)                 1.071339990328148E+05,      /* J = 15 */
(PID.TID 0000.0001)                 1.076362084889763E+05,      /* J = 16 */
(PID.TID 0000.0001)                 1.081056309133368E+05,      /* J = 17 */
(PID.TID 0000.0001)                 1.085421233152783E+05,      /* J = 18 */
(PID.TID 0000.0001)                 1.089455527349868E+05,      /* J = 19 */
(PID.TID 0000.0001)                 1.093157962839529E+05,      /* J = 20 */
(PID.TID 0000.0001)                 1.096527411824051E+05,      /* J = 21 */
(PID.TID 0000.0001)                 1.099562847936631E+05,      /* J = 22 */
(PID.TID 0000.0001)                 1.102263346554026E+05,      /* J = 23 */
(PID.TID 0000.0001)                 1.104628085078195E+05,      /* J = 24 */
(PID.TID 0000.0001)                 1.106656343186877E+05,      /* J = 25 */
(PID.TID 0000.0001)                 1.108347503053004E+05,      /* J = 26 */
(PID.TID 0000.0001)                 1.109701049532897E+05,      /* J = 27 */
(PID.TID 0000.0001)                 1.110716570323187E+05,      /* J = 28 */
(PID.TID 0000.0001)                 1.111393756086404E+05,      /* J = 29 */
(PID.TID 0000.0001)     2 @  1.111732400545204E+05,             /* J = 30: 31 */
(PID.TID 0000.0001)                 1.111393756086404E+05,      /* J = 32 */
(PID.TID 0000.0001)                 1.110716570323187E+05,      /* J = 33 */
(PID.TID 0000.0001)                 1.109701049532897E+05,      /* J = 34 */
(PID.TID 0000.0001)                 1.108347503053004E+05,      /* J = 35 */
(PID.TID 0000.0001)                 1.106656343186877E+05,      /* J = 36 */
(PID.TID 0000.0001)                 1.104628085078195E+05,      /* J = 37 */
(PID.TID 0000.0001)                 1.102263346554026E+05,      /* J = 38 */
(PID.TID 0000.0001)                 1.099562847936631E+05,      /* J = 39 */
(PID.TID 0000.0001)                 1.096527411824051E+05,      /* J = 40 */
(PID.TID 0000.0001)                 1.093157962839529E+05,      /* J = 41 */
(PID.TID 0000.0001)                 1.089455527349868E+05,      /* J = 42 */
(PID.TID 0000.0001)                 1.085421233152783E+05,      /* J = 43 */
(PID.TID 0000.0001)                 1.081056309133368E+05,      /* J = 44 */
(PID.TID 0000.0001)                 1.076362084889763E+05,      /* J = 45 */
(PID.TID 0000.0001)                 1.071339990328148E+05,      /* J = 46 */
(PID.TID 0000.0001)                 1.065991555227174E+05,      /* J = 47 */
(PID.TID 0000.0001)                 1.060318408771987E+05,      /* J = 48 */
(PID.TID 0000.0001)                 1.054322279057953E+05,      /* J = 49 */
(PID.TID 0000.0001)                 1.048004992564268E+05,      /* J = 50 */
(PID.TID 0000.0001)                 1.041368473597596E+05,      /* J = 51 */
(PID.TID 0000.0001)                 1.034414743705903E+05,      /* J = 52 */
(PID.TID 0000.0001)                 1.027145921062676E+05,      /* J = 53 */
(PID.TID 0000.0001)                 1.019564219821708E+05,      /* J = 54 */
(PID.TID 0000.0001)                 1.011671949442642E+05,      /* J = 55 */
(PID.TID 0000.0001)                 1.003471513987490E+05,      /* J = 56 */
(PID.TID 0000.0001)                 9.949654113883300E+04,      /* J = 57 */
(PID.TID 0000.0001)                 9.861562326864147E+04,      /* J = 58 */
(PID.TID 0000.0001)                 9.770466612429133E+04,      /* J = 59 */
(PID.TID 0000.0001)                 9.676394719215337E+04       /* J = 60 */
(PID.TID 0000.0001)     ;
(PID.TID 0000.0001) dyF =  /* dyF(:,1,:,1) ( m - cartesian, degrees - spherical ) */
(PID.TID 0000.0001)    60 @  1.111774733520388E+05              /* I =  1: 60 */
(PID.TID 0000.0001)     ;
(PID.TID 0000.0001) dyF =  /* dyF(1,:,1,:) ( m - cartesian, degrees - spherical ) */
(PID.TID 0000.0001)    60 @  1.111774733520388E+05              /* J =  1: 60 */
(PID.TID 0000.0001)     ;
(PID.TID 0000.0001) dxG =  /* dxG(:,1,:,1) ( m - cartesian, degrees - spherical ) */
(PID.TID 0000.0001)    60 @  9.628251625143306E+04              /* I =  1: 60 */
(PID.TID 0000.0001)     ;
(PID.TID 0000.0001) dxG =  /* dxG(1,:,1,:) ( m - cartesian, degrees - spherical ) */
(PID.TID 0000.0001)                 9.628251625143306E+04,      /* J =  1 */
(PID.TID 0000.0001)                 9.723800918365814E+04,      /* J =  2 */
(PID.TID 0000.0001)                 9.816388247632014E+04,      /* J =  3 */
(PID.TID 0000.0001)                 9.905985409944497E+04,      /* J =  4 */
(PID.TID 0000.0001)                 9.992565113139676E+04,      /* J =  5 */
(PID.TID 0000.0001)                 1.007610098420124E+05,      /* J =  6 */
(PID.TID 0000.0001)                 1.015656757729363E+05,      /* J =  7 */
(PID.TID 0000.0001)                 1.023394038151311E+05,      /* J =  8 */
(PID.TID 0000.0001)                 1.030819582835396E+05,      /* J =  9 */
(PID.TID 0000.0001)                 1.037931129888777E+05,      /* J = 10 */
(PID.TID 0000.0001)                 1.044726513065328E+05,      /* J = 11 */
(PID.TID 0000.0001)                 1.051203662425507E+05,      /* J = 12 */
(PID.TID 0000.0001)                 1.057360604966873E+05,      /* J = 13 */
(PID.TID 0000.0001)                 1.063195465225083E+05,      /* J = 14 */
(PID.TID 0000.0001)                 1.068706465845181E+05,      /* J = 15 */
(PID.TID 0000.0001)                 1.073891928122989E+05,      /* J = 16 */
(PID.TID 0000.0001)                 1.078750272516467E+05,      /* J = 17 */
(PID.TID 0000.0001)                 1.083280019126848E+05,      /* J = 18 */
(PID.TID 0000.0001)                 1.087479788149434E+05,      /* J = 19 */
(PID.TID 0000.0001)                 1.091348300293896E+05,      /* J = 20 */
(PID.TID 0000.0001)                 1.094884377173960E+05,      /* J = 21 */
(PID.TID 0000.0001)                 1.098086941666353E+05,      /* J = 22 */
(PID.TID 0000.0001)                 1.100955018238909E+05,      /* J = 23 */
(PID.TID 0000.0001)                 1.103487733247717E+05,      /* J = 24 */
(PID.TID 0000.0001)                 1.105684315203253E+05,      /* J = 25 */
(PID.TID 0000.0001)                 1.107544095005374E+05,      /* J = 26 */
(PID.TID 0000.0001)                 1.109066506147135E+05,      /* J = 27 */
(PID.TID 0000.0001)                 1.110251084887355E+05,      /* J = 28 */
(PID.TID 0000.0001)                 1.111097470391875E+05,      /* J = 29 */
(PID.TID 0000.0001)                 1.111605404843471E+05,      /* J = 30 */
(PID.TID 0000.0001)                 1.111774733520388E+05,      /* J = 31 */
(PID.TID 0000.0001)                 1.111605404843471E+05,      /* J = 32 */
(PID.TID 0000.0001)                 1.111097470391875E+05,      /* J = 33 */
(PID.TID 0000.0001)                 1.110251084887355E+05,      /* J = 34 */
(PID.TID 0000.0001)                 1.109066506147135E+05,      /* J = 35 */
(PID.TID 0000.0001)                 1.107544095005374E+05,      /* J = 36 */
(PID.TID 0000.0001)                 1.105684315203253E+05,      /* J = 37 */
(PID.TID 0000.0001)                 1.103487733247717E+05,      /* J = 38 */
(PID.TID 0000.0001)                 1.100955018238909E+05,      /* J = 39 */
(PID.TID 0000.0001)                 1.098086941666353E+05,      /* J = 40 */
(PID.TID 0000.0001)                 1.094884377173960E+05,      /* J = 41 */
(PID.TID 0000.0001)                 1.091348300293896E+05,      /* J = 42 */
(PID.TID 0000.0001)                 1.087479788149434E+05,      /* J = 43 */
(PID.TID 0000.0001)                 1.083280019126848E+05,      /* J = 44 */
(PID.TID 0000.0001)                 1.078750272516467E+05,      /* J = 45 */
(PID.TID 0000.0001)                 1.073891928122989E+05,      /* J = 46 */
(PID.TID 0000.0001)                 1.068706465845181E+05,      /* J = 47 */
(PID.TID 0000.0001)                 1.063195465225083E+05,      /* J = 48 */
(PID.TID 0000.0001)                 1.057360604966873E+05,      /* J = 49 */
(PID.TID 0000.0001)                 1.051203662425507E+05,      /* J = 50 */
(PID.TID 0000.0001)                 1.044726513065328E+05,      /* J = 51 */
(PID.TID 0000.0001)                 1.037931129888777E+05,      /* J = 52 */
(PID.TID 0000.0001)                 1.030819582835396E+05,      /* J = 53 */
(PID.TID 0000.0001)                 1.023394038151311E+05,      /* J = 54 */
(PID.TID 0000.0001)                 1.015656757729363E+05,      /* J = 55 */
(PID.TID 0000.0001)                 1.007610098420124E+05,      /* J = 56 */
(PID.TID 0000.0001)                 9.992565113139676E+04,      /* J = 57 */
(PID.TID 0000.0001)                 9.905985409944497E+04,      /* J = 58 */
(PID.TID 0000.0001)                 9.816388247632014E+04,      /* J = 59 */
(PID.TID 0000.0001)                 9.723800918365814E+04       /* J = 60 */
(PID.TID 0000.0001)     ;
(PID.TID 0000.0001) dyG =  /* dyG(:,1,:,1) ( m - cartesian, degrees - spherical ) */
(PID.TID 0000.0001)    60 @  1.111774733520388E+05              /* I =  1: 60 */
(PID.TID 0000.0001)     ;
(PID.TID 0000.0001) dyG =  /* dyG(1,:,1,:) ( m - cartesian, degrees - spherical ) */
(PID.TID 0000.0001)    60 @  1.111774733520388E+05              /* J =  1: 60 */
(PID.TID 0000.0001)     ;
(PID.TID 0000.0001) dxC =  /* dxC(:,1,:,1) ( m - cartesian, degrees - spherical ) */
(PID.TID 0000.0001)    60 @  9.676394719215337E+04              /* I =  1: 60 */
(PID.TID 0000.0001)     ;
(PID.TID 0000.0001) dxC =  /* dxC(1,:,1,:) ( m - cartesian, degrees - spherical ) */
(PID.TID 0000.0001)                 9.676394719215337E+04,      /* J =  1 */
(PID.TID 0000.0001)                 9.770466612429133E+04,      /* J =  2 */
(PID.TID 0000.0001)                 9.861562326864147E+04,      /* J =  3 */
(PID.TID 0000.0001)                 9.949654113883300E+04,      /* J =  4 */
(PID.TID 0000.0001)                 1.003471513987490E+05,      /* J =  5 */
(PID.TID 0000.0001)                 1.011671949442642E+05,      /* J =  6 */
(PID.TID 0000.0001)                 1.019564219821708E+05,      /* J =  7 */
(PID.TID 0000.0001)                 1.027145921062676E+05,      /* J =  8 */
(PID.TID 0000.0001)                 1.034414743705903E+05,      /* J =  9 */
(PID.TID 0000.0001)                 1.041368473597596E+05,      /* J = 10 */
(PID.TID 0000.0001)                 1.048004992564268E+05,      /* J = 11 */
(PID.TID 0000.0001)                 1.054322279057953E+05,      /* J = 12 */
(PID.TID 0000.0001)                 1.060318408771987E+05,      /* J = 13 */
(PID.TID 0000.0001)                 1.065991555227174E+05,      /* J = 14 */
(PID.TID 0000.0001)                 1.071339990328148E+05,      /* J = 15 */
(PID.TID 0000.0001)                 1.076362084889763E+05,      /* J = 16 */
(PID.TID 0000.0001)                 1.081056309133368E+05,      /* J = 17 */
(PID.TID 0000.0001)                 1.085421233152783E+05,      /* J = 18 */
(PID.TID 0000.0001)                 1.089455527349868E+05,      /* J = 19 */
(PID.TID 0000.0001)                 1.093157962839529E+05,      /* J = 20 */
(PID.TID 0000.0001)                 1.096527411824051E+05,      /* J = 21 */
(PID.TID 0000.0001)                 1.099562847936631E+05,      /* J = 22 */
(PID.TID 0000.0001)                 1.102263346554026E+05,      /* J = 23 */
(PID.TID 0000.0001)                 1.104628085078195E+05,      /* J = 24 */
(PID.TID 0000.0001)                 1.106656343186877E+05,      /* J = 25 */
(PID.TID 0000.0001)                 1.108347503053004E+05,      /* J = 26 */
(PID.TID 0000.0001)                 1.109701049532897E+05,      /* J = 27 */
(PID.TID 0000.0001)                 1.110716570323187E+05,      /* J = 28 */
(PID.TID 0000.0001)                 1.111393756086404E+05,      /* J = 29 */
(PID.TID 0000.0001)     2 @  1.111732400545204E+05,             /* J = 30: 31 */
(PID.TID 0000.0001)                 1.111393756086404E+05,      /* J = 32 */
(PID.TID 0000.0001)                 1.110716570323187E+05,      /* J = 33 */
(PID.TID 0000.0001)                 1.109701049532897E+05,      /* J = 34 */
(PID.TID 0000.0001)                 1.108347503053004E+05,      /* J = 35 */
(PID.TID 0000.0001)                 1.106656343186877E+05,      /* J = 36 */
(PID.TID 0000.0001)                 1.104628085078195E+05,      /* J = 37 */
(PID.TID 0000.0001)                 1.102263346554026E+05,      /* J = 38 */
(PID.TID 0000.0001)                 1.099562847936631E+05,      /* J = 39 */
(PID.TID 0000.0001)                 1.096527411824051E+05,      /* J = 40 */
(PID.TID 0000.0001)                 1.093157962839529E+05,      /* J = 41 */
(PID.TID 0000.0001)                 1.089455527349868E+05,      /* J = 42 */
(PID.TID 0000.0001)                 1.085421233152783E+05,      /* J = 43 */
(PID.TID 0000.0001)                 1.081056309133368E+05,      /* J = 44 */
(PID.TID 0000.0001)                 1.076362084889763E+05,      /* J = 45 */
(PID.TID 0000.0001)                 1.071339990328148E+05,      /* J = 46 */
(PID.TID 0000.0001)                 1.065991555227174E+05,      /* J = 47 */
(PID.TID 0000.0001)                 1.060318408771987E+05,      /* J = 48 */
(PID.TID 0000.0001)                 1.054322279057953E+05,      /* J = 49 */
(PID.TID 0000.0001)                 1.048004992564268E+05,      /* J = 50 */
(PID.TID 0000.0001)                 1.041368473597596E+05,      /* J = 51 */
(PID.TID 0000.0001)                 1.034414743705903E+05,      /* J = 52 */
(PID.TID 0000.0001)                 1.027145921062676E+05,      /* J = 53 */
(PID.TID 0000.0001)                 1.019564219821708E+05,      /* J = 54 */
(PID.TID 0000.0001)                 1.011671949442642E+05,      /* J = 55 */
(PID.TID 0000.0001)                 1.003471513987490E+05,      /* J = 56 */
(PID.TID 0000.0001)                 9.949654113883300E+04,      /* J = 57 */
(PID.TID 0000.0001)                 9.861562326864147E+04,      /* J = 58 */
(PID.TID 0000.0001)                 9.770466612429133E+04,      /* J = 59 */
(PID.TID 0000.0001)                 9.676394719215337E+04       /* J = 60 */
(PID.TID 0000.0001)     ;
(PID.TID 0000.0001) dyC =  /* dyC(:,1,:,1) ( m - cartesian, degrees - spherical ) */
(PID.TID 0000.0001)    60 @  1.111774733520388E+05              /* I =  1: 60 */
(PID.TID 0000.0001)     ;
(PID.TID 0000.0001) dyC =  /* dyC(1,:,1,:) ( m - cartesian, degrees - spherical ) */
(PID.TID 0000.0001)    60 @  1.111774733520388E+05              /* J =  1: 60 */
(PID.TID 0000.0001)     ;
(PID.TID 0000.0001) dxV =  /* dxV(:,1,:,1) ( m - cartesian, degrees - spherical ) */
(PID.TID 0000.0001)    60 @  9.628251625143306E+04              /* I =  1: 60 */
(PID.TID 0000.0001)     ;
(PID.TID 0000.0001) dxV =  /* dxV(1,:,1,:) ( m - cartesian, degrees - spherical ) */
(PID.TID 0000.0001)                 9.628251625143306E+04,      /* J =  1 */
(PID.TID 0000.0001)                 9.723800918365814E+04,      /* J =  2 */
(PID.TID 0000.0001)                 9.816388247632014E+04,      /* J =  3 */
(PID.TID 0000.0001)                 9.905985409944497E+04,      /* J =  4 */
(PID.TID 0000.0001)                 9.992565113139676E+04,      /* J =  5 */
(PID.TID 0000.0001)                 1.007610098420124E+05,      /* J =  6 */
(PID.TID 0000.0001)                 1.015656757729363E+05,      /* J =  7 */
(PID.TID 0000.0001)                 1.023394038151311E+05,      /* J =  8 */
(PID.TID 0000.0001)                 1.030819582835396E+05,      /* J =  9 */
(PID.TID 0000.0001)                 1.037931129888777E+05,      /* J = 10 */
(PID.TID 0000.0001)                 1.044726513065328E+05,      /* J = 11 */
(PID.TID 0000.0001)                 1.051203662425507E+05,      /* J = 12 */
(PID.TID 0000.0001)                 1.057360604966873E+05,      /* J = 13 */
(PID.TID 0000.0001)                 1.063195465225083E+05,      /* J = 14 */
(PID.TID 0000.0001)                 1.068706465845181E+05,      /* J = 15 */
(PID.TID 0000.0001)                 1.073891928122989E+05,      /* J = 16 */
(PID.TID 0000.0001)                 1.078750272516467E+05,      /* J = 17 */
(PID.TID 0000.0001)                 1.083280019126848E+05,      /* J = 18 */
(PID.TID 0000.0001)                 1.087479788149434E+05,      /* J = 19 */
(PID.TID 0000.0001)                 1.091348300293896E+05,      /* J = 20 */
(PID.TID 0000.0001)                 1.094884377173960E+05,      /* J = 21 */
(PID.TID 0000.0001)                 1.098086941666353E+05,      /* J = 22 */
(PID.TID 0000.0001)                 1.100955018238909E+05,      /* J = 23 */
(PID.TID 0000.0001)                 1.103487733247717E+05,      /* J = 24 */
(PID.TID 0000.0001)                 1.105684315203253E+05,      /* J = 25 */
(PID.TID 0000.0001)                 1.107544095005374E+05,      /* J = 26 */
(PID.TID 0000.0001)                 1.109066506147135E+05,      /* J = 27 */
(PID.TID 0000.0001)                 1.110251084887355E+05,      /* J = 28 */
(PID.TID 0000.0001)                 1.111097470391875E+05,      /* J = 29 */
(PID.TID 0000.0001)                 1.111605404843471E+05,      /* J = 30 */
(PID.TID 0000.0001)                 1.111774733520388E+05,      /* J = 31 */
(PID.TID 0000.0001)                 1.111605404843471E+05,      /* J = 32 */
(PID.TID 0000.0001)                 1.111097470391875E+05,      /* J = 33 */
(PID.TID 0000.0001)                 1.110251084887355E+05,      /* J = 34 */
(PID.TID 0000.0001)                 1.109066506147135E+05,      /* J = 35 */
(PID.TID 0000.0001)                 1.107544095005374E+05,      /* J = 36 */
(PID.TID 0000.0001)                 1.105684315203253E+05,      /* J = 37 */
(PID.TID 0000.0001)                 1.103487733247717E+05,      /* J = 38 */
(PID.TID 0000.0001)                 1.100955018238909E+05,      /* J = 39 */
(PID.TID 0000.0001)                 1.098086941666353E+05,      /* J = 40 */
(PID.TID 0000.0001)                 1.094884377173960E+05,      /* J = 41 */
(PID.TID 0000.0001)                 1.091348300293896E+05,      /* J = 42 */
(PID.TID 0000.0001)                 1.087479788149434E+05,      /* J = 43 */
(PID.TID 0000.0001)                 1.083280019126848E+05,      /* J = 44 */
(PID.TID 0000.0001)                 1.078750272516467E+05,      /* J = 45 */
(PID.TID 0000.0001)                 1.073891928122989E+05,      /* J = 46 */
(PID.TID 0000.0001)                 1.068706465845181E+05,      /* J = 47 */
(PID.TID 0000.0001)                 1.063195465225083E+05,      /* J = 48 */
(PID.TID 0000.0001)                 1.057360604966873E+05,      /* J = 49 */
(PID.TID 0000.0001)                 1.051203662425507E+05,      /* J = 50 */
(PID.TID 0000.0001)                 1.044726513065328E+05,      /* J = 51 */
(PID.TID 0000.0001)                 1.037931129888777E+05,      /* J = 52 */
(PID.TID 0000.0001)                 1.030819582835396E+05,      /* J = 53 */
(PID.TID 0000.0001)                 1.023394038151311E+05,      /* J = 54 */
(PID.TID 0000.0001)                 1.015656757729363E+05,      /* J = 55 */
(PID.TID 0000.0001)                 1.007610098420124E+05,      /* J = 56 */
(PID.TID 0000.0001)                 9.992565113139676E+04,      /* J = 57 */
(PID.TID 0000.0001)                 9.905985409944497E+04,      /* J = 58 */
(PID.TID 0000.0001)                 9.816388247632014E+04,      /* J = 59 */
(PID.TID 0000.0001)                 9.723800918365814E+04       /* J = 60 */
(PID.TID 0000.0001)     ;
(PID.TID 0000.0001) dyU =  /* dyU(:,1,:,1) ( m - cartesian, degrees - spherical ) */
(PID.TID 0000.0001)    60 @  1.111774733520388E+05              /* I =  1: 60 */
(PID.TID 0000.0001)     ;
(PID.TID 0000.0001) dyU =  /* dyU(1,:,1,:) ( m - cartesian, degrees - spherical ) */
(PID.TID 0000.0001)    60 @  1.111774733520388E+05              /* J =  1: 60 */
(PID.TID 0000.0001)     ;
(PID.TID 0000.0001) rA =  /* rA(:,1,:,1) ( m - cartesian, degrees - spherical ) */
(PID.TID 0000.0001)    60 @  1.075783461652121E+10              /* I =  1: 60 */
(PID.TID 0000.0001)     ;
(PID.TID 0000.0001) rA =  /* rA(1,:,1,:) ( m - cartesian, degrees - spherical ) */
(PID.TID 0000.0001)                 1.075783461652121E+10,      /* J =  1 */
(PID.TID 0000.0001)                 1.086242004307973E+10,      /* J =  2 */
(PID.TID 0000.0001)                 1.096369667126643E+10,      /* J =  3 */
(PID.TID 0000.0001)                 1.106163365123932E+10,      /* J =  4 */
(PID.TID 0000.0001)                 1.115620115044565E+10,      /* J =  5 */
(PID.TID 0000.0001)                 1.124737036270894E+10,      /* J =  6 */
(PID.TID 0000.0001)                 1.133511351700410E+10,      /* J =  7 */
(PID.TID 0000.0001)                 1.141940388591623E+10,      /* J =  8 */
(PID.TID 0000.0001)                 1.150021579378243E+10,      /* J =  9 */
(PID.TID 0000.0001)                 1.157752462451283E+10,      /* J = 10 */
(PID.TID 0000.0001)                 1.165130682908852E+10,      /* J = 11 */
(PID.TID 0000.0001)                 1.172153993273540E+10,      /* J = 12 */
(PID.TID 0000.0001)                 1.178820254176959E+10,      /* J = 13 */
(PID.TID 0000.0001)                 1.185127435011475E+10,      /* J = 14 */
(PID.TID 0000.0001)                 1.191073614548695E+10,      /* J = 15 */
(PID.TID 0000.0001)                 1.196656981524731E+10,      /* J = 16 */
(PID.TID 0000.0001)                 1.201875835191924E+10,      /* J = 17 */
(PID.TID 0000.0001)                 1.206728585836883E+10,      /* J = 18 */
(PID.TID 0000.0001)                 1.211213755264755E+10,      /* J = 19 */
(PID.TID 0000.0001)                 1.215329977249479E+10,      /* J = 20 */
(PID.TID 0000.0001)                 1.219075997949969E+10,      /* J = 21 */
(PID.TID 0000.0001)                 1.222450676292028E+10,      /* J = 22 */
(PID.TID 0000.0001)                 1.225452984315944E+10,      /* J = 23 */
(PID.TID 0000.0001)                 1.228082007489607E+10,      /* J = 24 */
(PID.TID 0000.0001)                 1.230336944987093E+10,      /* J = 25 */
(PID.TID 0000.0001)                 1.232217109932592E+10,      /* J = 26 */
(PID.TID 0000.0001)                 1.233721929609651E+10,      /* J = 27 */
(PID.TID 0000.0001)                 1.234850945635619E+10,      /* J = 28 */
(PID.TID 0000.0001)                 1.235603814101275E+10,      /* J = 29 */
(PID.TID 0000.0001)     2 @  1.235980305675594E+10,             /* J = 30: 31 */
(PID.TID 0000.0001)                 1.235603814101275E+10,      /* J = 32 */
(PID.TID 0000.0001)                 1.234850945635619E+10,      /* J = 33 */
(PID.TID 0000.0001)                 1.233721929609651E+10,      /* J = 34 */
(PID.TID 0000.0001)                 1.232217109932592E+10,      /* J = 35 */
(PID.TID 0000.0001)                 1.230336944987093E+10,      /* J = 36 */
(PID.TID 0000.0001)                 1.228082007489607E+10,      /* J = 37 */
(PID.TID 0000.0001)                 1.225452984315944E+10,      /* J = 38 */
(PID.TID 0000.0001)                 1.222450676292028E+10,      /* J = 39 */
(PID.TID 0000.0001)                 1.219075997949969E+10,      /* J = 40 */
(PID.TID 0000.0001)                 1.215329977249479E+10,      /* J = 41 */
(PID.TID 0000.0001)                 1.211213755264755E+10,      /* J = 42 */
(PID.TID 0000.0001)                 1.206728585836883E+10,      /* J = 43 */
(PID.TID 0000.0001)                 1.201875835191924E+10,      /* J = 44 */
(PID.TID 0000.0001)                 1.196656981524731E+10,      /* J = 45 */
(PID.TID 0000.0001)                 1.191073614548695E+10,      /* J = 46 */
(PID.TID 0000.0001)                 1.185127435011475E+10,      /* J = 47 */
(PID.TID 0000.0001)                 1.178820254176959E+10,      /* J = 48 */
(PID.TID 0000.0001)                 1.172153993273540E+10,      /* J = 49 */
(PID.TID 0000.0001)                 1.165130682908852E+10,      /* J = 50 */
(PID.TID 0000.0001)                 1.157752462451283E+10,      /* J = 51 */
(PID.TID 0000.0001)                 1.150021579378243E+10,      /* J = 52 */
(PID.TID 0000.0001)                 1.141940388591623E+10,      /* J = 53 */
(PID.TID 0000.0001)                 1.133511351700410E+10,      /* J = 54 */
(PID.TID 0000.0001)                 1.124737036270894E+10,      /* J = 55 */
(PID.TID 0000.0001)                 1.115620115044565E+10,      /* J = 56 */
(PID.TID 0000.0001)                 1.106163365123932E+10,      /* J = 57 */
(PID.TID 0000.0001)                 1.096369667126643E+10,      /* J = 58 */
(PID.TID 0000.0001)                 1.086242004307973E+10,      /* J = 59 */
(PID.TID 0000.0001)                 1.075783461652121E+10       /* J = 60 */
(PID.TID 0000.0001)     ;
(PID.TID 0000.0001) rAw =  /* rAw(:,1,:,1) ( m - cartesian, degrees - spherical ) */
(PID.TID 0000.0001)    60 @  1.075783461652121E+10              /* I =  1: 60 */
(PID.TID 0000.0001)     ;
(PID.TID 0000.0001) rAw =  /* rAw(1,:,1,:) ( m - cartesian, degrees - spherical ) */
(PID.TID 0000.0001)                 1.075783461652121E+10,      /* J =  1 */
(PID.TID 0000.0001)                 1.086242004307973E+10,      /* J =  2 */
(PID.TID 0000.0001)                 1.096369667126643E+10,      /* J =  3 */
(PID.TID 0000.0001)                 1.106163365123932E+10,      /* J =  4 */
(PID.TID 0000.0001)                 1.115620115044565E+10,      /* J =  5 */
(PID.TID 0000.0001)                 1.124737036270894E+10,      /* J =  6 */
(PID.TID 0000.0001)                 1.133511351700410E+10,      /* J =  7 */
(PID.TID 0000.0001)                 1.141940388591623E+10,      /* J =  8 */
(PID.TID 0000.0001)                 1.150021579378243E+10,      /* J =  9 */
(PID.TID 0000.0001)                 1.157752462451283E+10,      /* J = 10 */
(PID.TID 0000.0001)                 1.165130682908852E+10,      /* J = 11 */
(PID.TID 0000.0001)                 1.172153993273540E+10,      /* J = 12 */
(PID.TID 0000.0001)                 1.178820254176959E+10,      /* J = 13 */
(PID.TID 0000.0001)                 1.185127435011475E+10,      /* J = 14 */
(PID.TID 0000.0001)                 1.191073614548695E+10,      /* J = 15 */
(PID.TID 0000.0001)                 1.196656981524731E+10,      /* J = 16 */
(PID.TID 0000.0001)                 1.201875835191924E+10,      /* J = 17 */
(PID.TID 0000.0001)                 1.206728585836883E+10,      /* J = 18 */
(PID.TID 0000.0001)                 1.211213755264755E+10,      /* J = 19 */
(PID.TID 0000.0001)                 1.215329977249479E+10,      /* J = 20 */
(PID.TID 0000.0001)                 1.219075997949969E+10,      /* J = 21 */
(PID.TID 0000.0001)                 1.222450676292028E+10,      /* J = 22 */
(PID.TID 0000.0001)                 1.225452984315944E+10,      /* J = 23 */
(PID.TID 0000.0001)                 1.228082007489607E+10,      /* J = 24 */
(PID.TID 0000.0001)                 1.230336944987093E+10,      /* J = 25 */
(PID.TID 0000.0001)                 1.232217109932592E+10,      /* J = 26 */
(PID.TID 0000.0001)                 1.233721929609651E+10,      /* J = 27 */
(PID.TID 0000.0001)                 1.234850945635619E+10,      /* J = 28 */
(PID.TID 0000.0001)                 1.235603814101275E+10,      /* J = 29 */
(PID.TID 0000.0001)     2 @  1.235980305675594E+10,             /* J = 30: 31 */
(PID.TID 0000.0001)                 1.235603814101275E+10,      /* J = 32 */
(PID.TID 0000.0001)                 1.234850945635619E+10,      /* J = 33 */
(PID.TID 0000.0001)                 1.233721929609651E+10,      /* J = 34 */
(PID.TID 0000.0001)                 1.232217109932592E+10,      /* J = 35 */
(PID.TID 0000.0001)                 1.230336944987093E+10,      /* J = 36 */
(PID.TID 0000.0001)                 1.228082007489607E+10,      /* J = 37 */
(PID.TID 0000.0001)                 1.225452984315944E+10,      /* J = 38 */
(PID.TID 0000.0001)                 1.222450676292028E+10,      /* J = 39 */
(PID.TID 0000.0001)                 1.219075997949969E+10,      /* J = 40 */
(PID.TID 0000.0001)                 1.215329977249479E+10,      /* J = 41 */
(PID.TID 0000.0001)                 1.211213755264755E+10,      /* J = 42 */
(PID.TID 0000.0001)                 1.206728585836883E+10,      /* J = 43 */
(PID.TID 0000.0001)                 1.201875835191924E+10,      /* J = 44 */
(PID.TID 0000.0001)                 1.196656981524731E+10,      /* J = 45 */
(PID.TID 0000.0001)                 1.191073614548695E+10,      /* J = 46 */
(PID.TID 0000.0001)                 1.185127435011475E+10,      /* J = 47 */
(PID.TID 0000.0001)                 1.178820254176959E+10,      /* J = 48 */
(PID.TID 0000.0001)                 1.172153993273540E+10,      /* J = 49 */
(PID.TID 0000.0001)                 1.165130682908852E+10,      /* J = 50 */
(PID.TID 0000.0001)                 1.157752462451283E+10,      /* J = 51 */
(PID.TID 0000.0001)                 1.150021579378243E+10,      /* J = 52 */
(PID.TID 0000.0001)                 1.141940388591623E+10,      /* J = 53 */
(PID.TID 0000.0001)                 1.133511351700410E+10,      /* J = 54 */
(PID.TID 0000.0001)                 1.124737036270894E+10,      /* J = 55 */
(PID.TID 0000.0001)                 1.115620115044565E+10,      /* J = 56 */
(PID.TID 0000.0001)                 1.106163365123932E+10,      /* J = 57 */
(PID.TID 0000.0001)                 1.096369667126643E+10,      /* J = 58 */
(PID.TID 0000.0001)                 1.086242004307973E+10,      /* J = 59 */
(PID.TID 0000.0001)                 1.075783461652121E+10       /* J = 60 */
(PID.TID 0000.0001)     ;
(PID.TID 0000.0001) rAs =  /* rAs(:,1,:,1) ( m - cartesian, degrees - spherical ) */
(PID.TID 0000.0001)    60 @  1.070431102028696E+10              /* I =  1: 60 */
(PID.TID 0000.0001)     ;
(PID.TID 0000.0001) rAs =  /* rAs(1,:,1,:) ( m - cartesian, degrees - spherical ) */
(PID.TID 0000.0001)                 1.070431102028696E+10,      /* J =  1 */
(PID.TID 0000.0001)                 1.081053896199884E+10,      /* J =  2 */
(PID.TID 0000.0001)                 1.091347390881878E+10,      /* J =  3 */
(PID.TID 0000.0001)                 1.101308450576489E+10,      /* J =  4 */
(PID.TID 0000.0001)                 1.110934041048438E+10,      /* J =  5 */
(PID.TID 0000.0001)                 1.120221230249630E+10,      /* J =  6 */
(PID.TID 0000.0001)                 1.129167189212254E+10,      /* J =  7 */
(PID.TID 0000.0001)                 1.137769192910563E+10,      /* J =  8 */
(PID.TID 0000.0001)                 1.146024621090887E+10,      /* J =  9 */
(PID.TID 0000.0001)                 1.153930959069844E+10,      /* J = 10 */
(PID.TID 0000.0001)                 1.161485798500284E+10,      /* J = 11 */
(PID.TID 0000.0001)                 1.168686838104932E+10,      /* J = 12 */
(PID.TID 0000.0001)                 1.175531884377377E+10,      /* J = 13 */
(PID.TID 0000.0001)                 1.182018852250200E+10,      /* J = 14 */
(PID.TID 0000.0001)                 1.188145765730162E+10,      /* J = 15 */
(PID.TID 0000.0001)                 1.193910758500048E+10,      /* J = 16 */
(PID.TID 0000.0001)                 1.199312074487229E+10,      /* J = 17 */
(PID.TID 0000.0001)                 1.204348068398519E+10,      /* J = 18 */
(PID.TID 0000.0001)                 1.209017206221395E+10,      /* J = 19 */
(PID.TID 0000.0001)                 1.213318065691243E+10,      /* J = 20 */
(PID.TID 0000.0001)                 1.217249336724606E+10,      /* J = 21 */
(PID.TID 0000.0001)                 1.220809821818243E+10,      /* J = 22 */
(PID.TID 0000.0001)                 1.223998436413906E+10,      /* J = 23 */
(PID.TID 0000.0001)                 1.226814209228693E+10,      /* J = 24 */
(PID.TID 0000.0001)                 1.229256282550938E+10,      /* J = 25 */
(PID.TID 0000.0001)                 1.231323912501442E+10,      /* J = 26 */
(PID.TID 0000.0001)                 1.233016469260097E+10,      /* J = 27 */
(PID.TID 0000.0001)                 1.234333437257717E+10,      /* J = 28 */
(PID.TID 0000.0001)                 1.235274415333090E+10,      /* J = 29 */
(PID.TID 0000.0001)                 1.235839116855182E+10,      /* J = 30 */
(PID.TID 0000.0001)                 1.236027369810437E+10,      /* J = 31 */
(PID.TID 0000.0001)                 1.235839116855182E+10,      /* J = 32 */
(PID.TID 0000.0001)                 1.235274415333090E+10,      /* J = 33 */
(PID.TID 0000.0001)                 1.234333437257717E+10,      /* J = 34 */
(PID.TID 0000.0001)                 1.233016469260097E+10,      /* J = 35 */
(PID.TID 0000.0001)                 1.231323912501442E+10,      /* J = 36 */
(PID.TID 0000.0001)                 1.229256282550938E+10,      /* J = 37 */
(PID.TID 0000.0001)                 1.226814209228693E+10,      /* J = 38 */
(PID.TID 0000.0001)                 1.223998436413906E+10,      /* J = 39 */
(PID.TID 0000.0001)                 1.220809821818243E+10,      /* J = 40 */
(PID.TID 0000.0001)                 1.217249336724606E+10,      /* J = 41 */
(PID.TID 0000.0001)                 1.213318065691243E+10,      /* J = 42 */
(PID.TID 0000.0001)                 1.209017206221395E+10,      /* J = 43 */
(PID.TID 0000.0001)                 1.204348068398519E+10,      /* J = 44 */
(PID.TID 0000.0001)                 1.199312074487229E+10,      /* J = 45 */
(PID.TID 0000.0001)                 1.193910758500048E+10,      /* J = 46 */
(PID.TID 0000.0001)                 1.188145765730162E+10,      /* J = 47 */
(PID.TID 0000.0001)                 1.182018852250200E+10,      /* J = 48 */
(PID.TID 0000.0001)                 1.175531884377377E+10,      /* J = 49 */
(PID.TID 0000.0001)                 1.168686838104932E+10,      /* J = 50 */
(PID.TID 0000.0001)                 1.161485798500284E+10,      /* J = 51 */
(PID.TID 0000.0001)                 1.153930959069844E+10,      /* J = 52 */
(PID.TID 0000.0001)                 1.146024621090887E+10,      /* J = 53 */
(PID.TID 0000.0001)                 1.137769192910563E+10,      /* J = 54 */
(PID.TID 0000.0001)                 1.129167189212254E+10,      /* J = 55 */
(PID.TID 0000.0001)                 1.120221230249630E+10,      /* J = 56 */
(PID.TID 0000.0001)                 1.110934041048438E+10,      /* J = 57 */
(PID.TID 0000.0001)                 1.101308450576489E+10,      /* J = 58 */
(PID.TID 0000.0001)                 1.091347390881878E+10,      /* J = 59 */
(PID.TID 0000.0001)                 1.081053896199884E+10       /* J = 60 */
(PID.TID 0000.0001)     ;
(PID.TID 0000.0001) 
(PID.TID 0000.0001) // =======================================================
(PID.TID 0000.0001) // Field Initial Temperature at iteration          1
(PID.TID 0000.0001) // CMIN =          2.000000000000000E+01
(PID.TID 0000.0001) // CMAX =          2.000000000000000E+01
(PID.TID 0000.0001) // CINT =          0.000000000000000E+00
(PID.TID 0000.0001) // SYMBOLS (CMIN->CMAX): -abcdefghijklmnopqrstuvwxyz+
(PID.TID 0000.0001) //                  0.0: .
(PID.TID 0000.0001) // RANGE I (Lo:Hi:Step):(   1:  60:   1)
(PID.TID 0000.0001) // RANGE J (Lo:Hi:Step):(  60:   1:  -1)
(PID.TID 0000.0001) // RANGE K (Lo:Hi:Step):(   1:   1:   1)
(PID.TID 0000.0001) // =======================================================
(PID.TID 0000.0001) K =   1
(PID.TID 0000.0001)                I=10      I=20      I=30      I=40      I=50      I=60
(PID.TID 0000.0001) |--J--|123456789|123456789|123456789|123456789|123456789|123456789|
(PID.TID 0000.0001)     60 ............................................................
(PID.TID 0000.0001)     59 -----------------------------------------------------------.
(PID.TID 0000.0001)     58 -----------------------------------------------------------.
(PID.TID 0000.0001)     57 -----------------------------------------------------------.
(PID.TID 0000.0001)     56 -----------------------------------------------------------.
(PID.TID 0000.0001)     55 -----------------------------------------------------------.
(PID.TID 0000.0001)     54 -----------------------------------------------------------.
(PID.TID 0000.0001)     53 -----------------------------------------------------------.
(PID.TID 0000.0001)     52 -----------------------------------------------------------.
(PID.TID 0000.0001)     51 -----------------------------------------------------------.
(PID.TID 0000.0001)     50 -----------------------------------------------------------.
(PID.TID 0000.0001)     49 -----------------------------------------------------------.
(PID.TID 0000.0001)     48 -----------------------------------------------------------.
(PID.TID 0000.0001)     47 -----------------------------------------------------------.
(PID.TID 0000.0001)     46 -----------------------------------------------------------.
(PID.TID 0000.0001)     45 -----------------------------------------------------------.
(PID.TID 0000.0001)     44 -----------------------------------------------------------.
(PID.TID 0000.0001)     43 -----------------------------------------------------------.
(PID.TID 0000.0001)     42 -----------------------------------------------------------.
(PID.TID 0000.0001)     41 -----------------------------------------------------------.
(PID.TID 0000.0001)     40 -----------------------------------------------------------.
(PID.TID 0000.0001)     39 -----------------------------------------------------------.
(PID.TID 0000.0001)     38 -----------------------------------------------------------.
(PID.TID 0000.0001)     37 -----------------------------------------------------------.
(PID.TID 0000.0001)     36 -----------------------------------------------------------.
(PID.TID 0000.0001)     35 -----------------------------------------------------------.
(PID.TID 0000.0001)     34 -----------------------------------------------------------.
(PID.TID 0000.0001)     33 -----------------------------------------------------------.
(PID.TID 0000.0001)     32 -----------------------------------------------------------.
(PID.TID 0000.0001)     31 -----------------------------------------------------------.
(PID.TID 0000.0001)     30 -----------------------------------------------------------.
(PID.TID 0000.0001)     29 -----------------------------------------------------------.
(PID.TID 0000.0001)     28 -----------------------------------------------------------.
(PID.TID 0000.0001)     27 -----------------------------------------------------------.
(PID.TID 0000.0001)     26 -----------------------------------------------------------.
(PID.TID 0000.0001)     25 -----------------------------------------------------------.
(PID.TID 0000.0001)     24 -----------------------------------------------------------.
(PID.TID 0000.0001)     23 -----------------------------------------------------------.
(PID.TID 0000.0001)     22 -----------------------------------------------------------.
(PID.TID 0000.0001)     21 -----------------------------------------------------------.
(PID.TID 0000.0001)     20 -----------------------------------------------------------.
(PID.TID 0000.0001)     19 -----------------------------------------------------------.
(PID.TID 0000.0001)     18 -----------------------------------------------------------.
(PID.TID 0000.0001)     17 -----------------------------------------------------------.
(PID.TID 0000.0001)     16 -----------------------------------------------------------.
(PID.TID 0000.0001)     15 -----------------------------------------------------------.
(PID.TID 0000.0001)     14 -----------------------------------------------------------.
(PID.TID 0000.0001)     13 -----------------------------------------------------------.
(PID.TID 0000.0001)     12 -----------------------------------------------------------.
(PID.TID 0000.0001)     11 -----------------------------------------------------------.
(PID.TID 0000.0001)     10 -----------------------------------------------------------.
(PID.TID 0000.0001)      9 -----------------------------------------------------------.
(PID.TID 0000.0001)      8 -----------------------------------------------------------.
(PID.TID 0000.0001)      7 -----------------------------------------------------------.
(PID.TID 0000.0001)      6 -----------------------------------------------------------.
(PID.TID 0000.0001)      5 -----------------------------------------------------------.
(PID.TID 0000.0001)      4 -----------------------------------------------------------.
(PID.TID 0000.0001)      3 -----------------------------------------------------------.
(PID.TID 0000.0001)      2 -----------------------------------------------------------.
(PID.TID 0000.0001)      1 -----------------------------------------------------------.
(PID.TID 0000.0001) // =======================================================
(PID.TID 0000.0001) // END OF FIELD                                          =
(PID.TID 0000.0001) // =======================================================
(PID.TID 0000.0001) 
(PID.TID 0000.0001) // =======================================================
(PID.TID 0000.0001) // Field Initial Salinity at iteration          1
(PID.TID 0000.0001) // CMIN =          1.000000000000000E+01
(PID.TID 0000.0001) // CMAX =          1.000000000000000E+01
(PID.TID 0000.0001) // CINT =          0.000000000000000E+00
(PID.TID 0000.0001) // SYMBOLS (CMIN->CMAX): -abcdefghijklmnopqrstuvwxyz+
(PID.TID 0000.0001) //                  0.0: .
(PID.TID 0000.0001) // RANGE I (Lo:Hi:Step):(   1:  60:   1)
(PID.TID 0000.0001) // RANGE J (Lo:Hi:Step):(  60:   1:  -1)
(PID.TID 0000.0001) // RANGE K (Lo:Hi:Step):(   1:   1:   1)
(PID.TID 0000.0001) // =======================================================
(PID.TID 0000.0001) K =   1
(PID.TID 0000.0001)                I=10      I=20      I=30      I=40      I=50      I=60
(PID.TID 0000.0001) |--J--|123456789|123456789|123456789|123456789|123456789|123456789|
(PID.TID 0000.0001)     60 ............................................................
(PID.TID 0000.0001)     59 -----------------------------------------------------------.
(PID.TID 0000.0001)     58 -----------------------------------------------------------.
(PID.TID 0000.0001)     57 -----------------------------------------------------------.
(PID.TID 0000.0001)     56 -----------------------------------------------------------.
(PID.TID 0000.0001)     55 -----------------------------------------------------------.
(PID.TID 0000.0001)     54 -----------------------------------------------------------.
(PID.TID 0000.0001)     53 -----------------------------------------------------------.
(PID.TID 0000.0001)     52 -----------------------------------------------------------.
(PID.TID 0000.0001)     51 -----------------------------------------------------------.
(PID.TID 0000.0001)     50 -----------------------------------------------------------.
(PID.TID 0000.0001)     49 -----------------------------------------------------------.
(PID.TID 0000.0001)     48 -----------------------------------------------------------.
(PID.TID 0000.0001)     47 -----------------------------------------------------------.
(PID.TID 0000.0001)     46 -----------------------------------------------------------.
(PID.TID 0000.0001)     45 -----------------------------------------------------------.
(PID.TID 0000.0001)     44 -----------------------------------------------------------.
(PID.TID 0000.0001)     43 -----------------------------------------------------------.
(PID.TID 0000.0001)     42 -----------------------------------------------------------.
(PID.TID 0000.0001)     41 -----------------------------------------------------------.
(PID.TID 0000.0001)     40 -----------------------------------------------------------.
(PID.TID 0000.0001)     39 -----------------------------------------------------------.
(PID.TID 0000.0001)     38 -----------------------------------------------------------.
(PID.TID 0000.0001)     37 -----------------------------------------------------------.
(PID.TID 0000.0001)     36 -----------------------------------------------------------.
(PID.TID 0000.0001)     35 -----------------------------------------------------------.
(PID.TID 0000.0001)     34 -----------------------------------------------------------.
(PID.TID 0000.0001)     33 -----------------------------------------------------------.
(PID.TID 0000.0001)     32 -----------------------------------------------------------.
(PID.TID 0000.0001)     31 -----------------------------------------------------------.
(PID.TID 0000.0001)     30 -----------------------------------------------------------.
(PID.TID 0000.0001)     29 -----------------------------------------------------------.
(PID.TID 0000.0001)     28 -----------------------------------------------------------.
(PID.TID 0000.0001)     27 -----------------------------------------------------------.
(PID.TID 0000.0001)     26 -----------------------------------------------------------.
(PID.TID 0000.0001)     25 -----------------------------------------------------------.
(PID.TID 0000.0001)     24 -----------------------------------------------------------.
(PID.TID 0000.0001)     23 -----------------------------------------------------------.
(PID.TID 0000.0001)     22 -----------------------------------------------------------.
(PID.TID 0000.0001)     21 -----------------------------------------------------------.
(PID.TID 0000.0001)     20 -----------------------------------------------------------.
(PID.TID 0000.0001)     19 -----------------------------------------------------------.
(PID.TID 0000.0001)     18 -----------------------------------------------------------.
(PID.TID 0000.0001)     17 -----------------------------------------------------------.
(PID.TID 0000.0001)     16 -----------------------------------------------------------.
(PID.TID 0000.0001)     15 -----------------------------------------------------------.
(PID.TID 0000.0001)     14 -----------------------------------------------------------.
(PID.TID 0000.0001)     13 -----------------------------------------------------------.
(PID.TID 0000.0001)     12 -----------------------------------------------------------.
(PID.TID 0000.0001)     11 -----------------------------------------------------------.
(PID.TID 0000.0001)     10 -----------------------------------------------------------.
(PID.TID 0000.0001)      9 -----------------------------------------------------------.
(PID.TID 0000.0001)      8 -----------------------------------------------------------.
(PID.TID 0000.0001)      7 -----------------------------------------------------------.
(PID.TID 0000.0001)      6 -----------------------------------------------------------.
(PID.TID 0000.0001)      5 -----------------------------------------------------------.
(PID.TID 0000.0001)      4 -----------------------------------------------------------.
(PID.TID 0000.0001)      3 -----------------------------------------------------------.
(PID.TID 0000.0001)      2 -----------------------------------------------------------.
(PID.TID 0000.0001)      1 -----------------------------------------------------------.
(PID.TID 0000.0001) // =======================================================
(PID.TID 0000.0001) // END OF FIELD                                          =
(PID.TID 0000.0001) // =======================================================
(PID.TID 0000.0001) 
(PID.TID 0000.0001)  MDSREADFIELD: opening global file: windx.sin_y
(PID.TID 0000.0001) // =======================================================
(PID.TID 0000.0001) // Model current state
(PID.TID 0000.0001) // =======================================================
(PID.TID 0000.0001) 
(PID.TID 0000.0001) // =======================================================
(PID.TID 0000.0001) // Begin MONITOR dynamic field statistics
(PID.TID 0000.0001) // =======================================================
(PID.TID 0000.0001) %MON time_tsnumber                =                     0
(PID.TID 0000.0001) %MON time_secondsf                =   0.0000000000000E+00
(PID.TID 0000.0001) %MON time_secondsi                =                     0
(PID.TID 0000.0001) %MON dynstat_eta_max              =   0.0000000000000E+00
(PID.TID 0000.0001) %MON dynstat_eta_min              =   0.0000000000000E+00
(PID.TID 0000.0001) %MON dynstat_eta_mean             =   0.0000000000000E+00
(PID.TID 0000.0001) %MON dynstat_eta_sd               =   0.0000000000000E+00
(PID.TID 0000.0001) %MON dynstat_uvel_max             =   0.0000000000000E+00
(PID.TID 0000.0001) %MON dynstat_uvel_min             =   0.0000000000000E+00
(PID.TID 0000.0001) %MON dynstat_uvel_mean            =   0.0000000000000E+00
(PID.TID 0000.0001) %MON dynstat_uvel_sd              =   0.0000000000000E+00
(PID.TID 0000.0001) %MON dynstat_vvel_max             =   0.0000000000000E+00
(PID.TID 0000.0001) %MON dynstat_vvel_min             =   0.0000000000000E+00
(PID.TID 0000.0001) %MON dynstat_vvel_mean            =   0.0000000000000E+00
(PID.TID 0000.0001) %MON dynstat_vvel_sd              =   0.0000000000000E+00
(PID.TID 0000.0001) %MON dynstat_wvel_max             =   0.0000000000000E+00
(PID.TID 0000.0001) %MON dynstat_wvel_min             =   0.0000000000000E+00
(PID.TID 0000.0001) %MON dynstat_wvel_mean            =   0.0000000000000E+00
(PID.TID 0000.0001) %MON dynstat_wvel_sd              =   0.0000000000000E+00
(PID.TID 0000.0001) %MON dynstat_theta_max            =   2.0000000000000E+01
(PID.TID 0000.0001) %MON dynstat_theta_min            =   6.0000000000000E+00
(PID.TID 0000.0001) %MON dynstat_theta_mean           =   1.1000000000000E+01
(PID.TID 0000.0001) %MON dynstat_theta_sd             =   5.3851648071345E+00
(PID.TID 0000.0001) %MON dynstat_salt_max             =   1.0000000000000E+01
(PID.TID 0000.0001) %MON dynstat_salt_min             =   1.0000000000000E+01
(PID.TID 0000.0001) %MON dynstat_salt_mean            =   1.0000000000000E+01
(PID.TID 0000.0001) %MON dynstat_salt_sd              =   0.0000000000000E+00
(PID.TID 0000.0001) %MON advcfl_uvel_max              =   0.0000000000000E+00
(PID.TID 0000.0001) %MON advcfl_vvel_max              =   0.0000000000000E+00
(PID.TID 0000.0001) %MON advcfl_wvel_max              =   0.0000000000000E+00
(PID.TID 0000.0001) %MON ke_max                       =   0.0000000000000E+00
(PID.TID 0000.0001) %MON ke_mean                      =   0.0000000000000E+00
(PID.TID 0000.0001) // =======================================================
(PID.TID 0000.0001) // End MONITOR dynamic field statistics
(PID.TID 0000.0001) // =======================================================
 cg2d: Sum(rhs),rhsMax =  -1.89431803576667E-15  7.74266430823392E-03
(PID.TID 0000.0001)                    cg2d_init_res =    7.68114574786861E+00
(PID.TID 0000.0001)                       cg2d_iters =    36
(PID.TID 0000.0001)                         cg2d_res =    5.24380765561222E-14
(PID.TID 0000.0001) // =======================================================
(PID.TID 0000.0001) // Begin MONITOR dynamic field statistics
(PID.TID 0000.0001) // =======================================================
(PID.TID 0000.0001) %MON time_tsnumber                =                     1
(PID.TID 0000.0001) %MON time_secondsf                =   1.2000000000000E+03
(PID.TID 0000.0001) %MON time_secondsi                =                  1200
(PID.TID 0000.0001) %MON dynstat_eta_max              =   9.8668957682326E-04
(PID.TID 0000.0001) %MON dynstat_eta_min              =  -9.8668957682326E-04
(PID.TID 0000.0001) %MON dynstat_eta_mean             =   1.7596299743192E-20
(PID.TID 0000.0001) %MON dynstat_eta_sd               =   1.5271501653962E-04
(PID.TID 0000.0001) %MON dynstat_uvel_max             =   3.8407681441482E-04
(PID.TID 0000.0001) %MON dynstat_uvel_min             =  -5.0028020942091E-05
(PID.TID 0000.0001) %MON dynstat_uvel_mean            =   5.8750390188262E-05
(PID.TID 0000.0001) %MON dynstat_uvel_sd              =   1.2122146391166E-04
(PID.TID 0000.0001) %MON dynstat_vvel_max             =   5.3478640263109E-06
(PID.TID 0000.0001) %MON dynstat_vvel_min             =  -5.3478640263109E-06
(PID.TID 0000.0001) %MON dynstat_vvel_mean            =  -7.9300152913982E-23
(PID.TID 0000.0001) %MON dynstat_vvel_sd              =   8.0115328648408E-07
(PID.TID 0000.0001) %MON dynstat_wvel_max             =   0.0000000000000E+00
(PID.TID 0000.0001) %MON dynstat_wvel_min             =   0.0000000000000E+00
(PID.TID 0000.0001) %MON dynstat_wvel_mean            =   0.0000000000000E+00
(PID.TID 0000.0001) %MON dynstat_wvel_sd              =   0.0000000000000E+00
(PID.TID 0000.0001) %MON dynstat_theta_max            =   1.9999232000000E+01
(PID.TID 0000.0001) %MON dynstat_theta_min            =   6.0001536000000E+00
(PID.TID 0000.0001) %MON dynstat_theta_mean           =   1.1000000000001E+01
(PID.TID 0000.0001) %MON dynstat_theta_sd             =   5.3847797585158E+00
(PID.TID 0000.0001) %MON dynstat_salt_max             =   1.0000000000000E+01
(PID.TID 0000.0001) %MON dynstat_salt_min             =   1.0000000000000E+01
(PID.TID 0000.0001) %MON dynstat_salt_mean            =   1.0000000000000E+01
(PID.TID 0000.0001) %MON dynstat_salt_sd              =   0.0000000000000E+00
(PID.TID 0000.0001) %MON advcfl_uvel_max              =   4.1457114776160E-06
(PID.TID 0000.0001) %MON advcfl_vvel_max              =   5.7722456160274E-08
(PID.TID 0000.0001) %MON advcfl_wvel_max              =   0.0000000000000E+00
(PID.TID 0000.0001) %MON ke_max                       =   7.3757499685518E-08
(PID.TID 0000.0001) %MON ke_mean                      =   8.9196569388663E-09
(PID.TID 0000.0001) // =======================================================
(PID.TID 0000.0001) // End MONITOR dynamic field statistics
(PID.TID 0000.0001) // =======================================================
 cg2d: Sum(rhs),rhsMax =  -5.33253996515271E-14  1.22192534524762E-02
(PID.TID 0000.0001)                    cg2d_init_res =    3.95921718608974E+00
(PID.TID 0000.0001)                       cg2d_iters =    35
(PID.TID 0000.0001)                         cg2d_res =    5.69994337236351E-14
(PID.TID 0000.0001) // =======================================================
(PID.TID 0000.0001) // Begin MONITOR dynamic field statistics
(PID.TID 0000.0001) // =======================================================
(PID.TID 0000.0001) %MON time_tsnumber                =                     2
(PID.TID 0000.0001) %MON time_secondsf                =   2.4000000000000E+03
(PID.TID 0000.0001) %MON time_secondsi                =                  2400
(PID.TID 0000.0001) %MON dynstat_eta_max              =   1.9110486887882E-03
(PID.TID 0000.0001) %MON dynstat_eta_min              =  -1.9011833854942E-03
(PID.TID 0000.0001) %MON dynstat_eta_mean             =  -3.0138112077960E-07
(PID.TID 0000.0001) %MON dynstat_eta_sd               =   3.3644823658219E-04
(PID.TID 0000.0001) %MON dynstat_uvel_max             =   6.2409524128735E-04
(PID.TID 0000.0001) %MON dynstat_uvel_min             =  -1.1270993587623E-04
(PID.TID 0000.0001) %MON dynstat_uvel_mean            =   9.2351286387417E-05
(PID.TID 0000.0001) %MON dynstat_uvel_sd              =   1.9713020052006E-04
(PID.TID 0000.0001) %MON dynstat_vvel_max             =   2.5755432354698E-05
(PID.TID 0000.0001) %MON dynstat_vvel_min             =  -2.4813787533153E-05
(PID.TID 0000.0001) %MON dynstat_vvel_mean            =   1.3829209923108E-07
(PID.TID 0000.0001) %MON dynstat_vvel_sd              =   7.2785597254026E-06
(PID.TID 0000.0001) %MON dynstat_wvel_max             =   8.2224131401938E-07
(PID.TID 0000.0001) %MON dynstat_wvel_min             =  -8.2224131401938E-07
(PID.TID 0000.0001) %MON dynstat_wvel_mean            =  -1.4290066112213E-23
(PID.TID 0000.0001) %MON dynstat_wvel_sd              =   9.0987040877881E-08
(PID.TID 0000.0001) %MON dynstat_theta_max            =   1.9998765138676E+01
(PID.TID 0000.0001) %MON dynstat_theta_min            =   6.0002487193163E+00
(PID.TID 0000.0001) %MON dynstat_theta_mean           =   1.1000000000000E+01
(PID.TID 0000.0001) %MON dynstat_theta_sd             =   5.3845391585038E+00
(PID.TID 0000.0001) %MON dynstat_salt_max             =   1.0000000000000E+01
(PID.TID 0000.0001) %MON dynstat_salt_min             =   1.0000000000000E+01
(PID.TID 0000.0001) %MON dynstat_salt_mean            =   1.0000000000000E+01
(PID.TID 0000.0001) %MON dynstat_salt_sd              =   0.0000000000000E+00
(PID.TID 0000.0001) %MON advcfl_uvel_max              =   6.7364618425940E-06
(PID.TID 0000.0001) %MON advcfl_vvel_max              =   2.7799263550246E-07
(PID.TID 0000.0001) %MON advcfl_wvel_max              =   3.9467583072930E-06
(PID.TID 0000.0001) %MON ke_max                       =   1.9474830326752E-07
(PID.TID 0000.0001) %MON ke_mean                      =   2.3318984842631E-08
(PID.TID 0000.0001) // =======================================================
(PID.TID 0000.0001) // End MONITOR dynamic field statistics
(PID.TID 0000.0001) // =======================================================
 cg2d: Sum(rhs),rhsMax =  -8.93729534823251E-14  1.54793179842916E-02
(PID.TID 0000.0001)                    cg2d_init_res =    3.41677628016159E+00
(PID.TID 0000.0001)                       cg2d_iters =    34
(PID.TID 0000.0001)                         cg2d_res =    5.99777765362415E-14
(PID.TID 0000.0001) // =======================================================
(PID.TID 0000.0001) // Begin MONITOR dynamic field statistics
(PID.TID 0000.0001) // =======================================================
(PID.TID 0000.0001) %MON time_tsnumber                =                     3
(PID.TID 0000.0001) %MON time_secondsf                =   3.6000000000000E+03
(PID.TID 0000.0001) %MON time_secondsi                =                  3600
(PID.TID 0000.0001) %MON dynstat_eta_max              =   2.7818929567934E-03
(PID.TID 0000.0001) %MON dynstat_eta_min              =  -2.7502827314329E-03
(PID.TID 0000.0001) %MON dynstat_eta_mean             =  -9.4537966676255E-07
(PID.TID 0000.0001) %MON dynstat_eta_sd               =   5.5069626824930E-04
(PID.TID 0000.0001) %MON dynstat_uvel_max             =   8.6410385355423E-04
(PID.TID 0000.0001) %MON dynstat_uvel_min             =  -1.7483775125860E-04
(PID.TID 0000.0001) %MON dynstat_uvel_mean            =   1.2364709983891E-04
(PID.TID 0000.0001) %MON dynstat_uvel_sd              =   2.7283993994974E-04
(PID.TID 0000.0001) %MON dynstat_vvel_max             =   5.5760083985513E-05
(PID.TID 0000.0001) %MON dynstat_vvel_min             =  -5.3712977930746E-05
(PID.TID 0000.0001) %MON dynstat_vvel_mean            =   3.0173004013613E-07
(PID.TID 0000.0001) %MON dynstat_vvel_sd              =   1.6092458518242E-05
(PID.TID 0000.0001) %MON dynstat_wvel_max             =   1.5303337815004E-06
(PID.TID 0000.0001) %MON dynstat_wvel_min             =  -1.5304806410227E-06
(PID.TID 0000.0001) %MON dynstat_wvel_mean            =  -5.5787864032823E-11
(PID.TID 0000.0001) %MON dynstat_wvel_sd              =   1.6056569868530E-07
(PID.TID 0000.0001) %MON dynstat_theta_max            =   1.9998309761653E+01
(PID.TID 0000.0001) %MON dynstat_theta_min            =   6.0003430716950E+00
(PID.TID 0000.0001) %MON dynstat_theta_mean           =   1.0999999999839E+01
(PID.TID 0000.0001) %MON dynstat_theta_sd             =   5.3842985771053E+00
(PID.TID 0000.0001) %MON dynstat_salt_max             =   1.0000000000000E+01
(PID.TID 0000.0001) %MON dynstat_salt_min             =   1.0000000000000E+01
(PID.TID 0000.0001) %MON dynstat_salt_mean            =   1.0000000000000E+01
(PID.TID 0000.0001) %MON dynstat_salt_sd              =   0.0000000000000E+00
(PID.TID 0000.0001) %MON advcfl_uvel_max              =   9.3271062690676E-06
(PID.TID 0000.0001) %MON advcfl_vvel_max              =   6.0184944634190E-07
(PID.TID 0000.0001) %MON advcfl_wvel_max              =   3.6974364478598E-06
(PID.TID 0000.0001) %MON ke_max                       =   3.7334210054565E-07
(PID.TID 0000.0001) %MON ke_mean                      =   4.4232027040397E-08
(PID.TID 0000.0001) // =======================================================
(PID.TID 0000.0001) // End MONITOR dynamic field statistics
(PID.TID 0000.0001) // =======================================================
 cg2d: Sum(rhs),rhsMax =  -4.08700850940136E-13  1.85881995594163E-02
(PID.TID 0000.0001)                    cg2d_init_res =    3.12852256152321E+00
(PID.TID 0000.0001)                       cg2d_iters =    34
(PID.TID 0000.0001)                         cg2d_res =    7.23623745056145E-14
(PID.TID 0000.0001) // =======================================================
(PID.TID 0000.0001) // Begin MONITOR dynamic field statistics
(PID.TID 0000.0001) // =======================================================
(PID.TID 0000.0001) %MON time_tsnumber                =                     4
(PID.TID 0000.0001) %MON time_secondsf                =   4.8000000000000E+03
(PID.TID 0000.0001) %MON time_secondsi                =                  4800
(PID.TID 0000.0001) %MON dynstat_eta_max              =   3.6327503070621E-03
(PID.TID 0000.0001) %MON dynstat_eta_min              =  -3.5644383093720E-03
(PID.TID 0000.0001) %MON dynstat_eta_mean             =  -1.9978464249662E-06
(PID.TID 0000.0001) %MON dynstat_eta_sd               =   7.9188483213716E-04
(PID.TID 0000.0001) %MON dynstat_uvel_max             =   1.1040980100175E-03
(PID.TID 0000.0001) %MON dynstat_uvel_min             =  -2.3537321511436E-04
(PID.TID 0000.0001) %MON dynstat_uvel_mean            =   1.5272991071862E-04
(PID.TID 0000.0001) %MON dynstat_uvel_sd              =   3.4833130164371E-04
(PID.TID 0000.0001) %MON dynstat_vvel_max             =   9.4873995631042E-05
(PID.TID 0000.0001) %MON dynstat_vvel_min             =  -9.1443544086958E-05
(PID.TID 0000.0001) %MON dynstat_vvel_mean            =   5.0493775996616E-07
(PID.TID 0000.0001) %MON dynstat_vvel_sd              =   2.7529148706023E-05
(PID.TID 0000.0001) %MON dynstat_wvel_max             =   2.3749792946468E-06
(PID.TID 0000.0001) %MON dynstat_wvel_min             =  -2.3755952974791E-06
(PID.TID 0000.0001) %MON dynstat_wvel_mean            =  -1.0776865656653E-10
(PID.TID 0000.0001) %MON dynstat_wvel_sd              =   2.3066824656610E-07
(PID.TID 0000.0001) %MON dynstat_theta_max            =   1.9997864513377E+01
(PID.TID 0000.0001) %MON dynstat_theta_min            =   6.0004367488904E+00
(PID.TID 0000.0001) %MON dynstat_theta_mean           =   1.0999999999291E+01
(PID.TID 0000.0001) %MON dynstat_theta_sd             =   5.3840580206663E+00
(PID.TID 0000.0001) %MON dynstat_salt_max             =   1.0000000000000E+01
(PID.TID 0000.0001) %MON dynstat_salt_min             =   1.0000000000000E+01
(PID.TID 0000.0001) %MON dynstat_salt_mean            =   1.0000000000000E+01
(PID.TID 0000.0001) %MON dynstat_salt_sd              =   0.0000000000000E+00
(PID.TID 0000.0001) %MON advcfl_uvel_max              =   1.1917594660111E-05
(PID.TID 0000.0001) %MON advcfl_vvel_max              =   1.0240275419532E-06
(PID.TID 0000.0001) %MON advcfl_wvel_max              =   5.7014287139499E-06
(PID.TID 0000.0001) %MON ke_max                       =   6.0952915832748E-07
(PID.TID 0000.0001) %MON ke_mean                      =   7.1477248803096E-08
(PID.TID 0000.0001) // =======================================================
(PID.TID 0000.0001) // End MONITOR dynamic field statistics
(PID.TID 0000.0001) // =======================================================
 cg2d: Sum(rhs),rhsMax =  -3.95281030129979E-13  2.17587153579732E-02
(PID.TID 0000.0001)                    cg2d_init_res =    2.91140048391036E+00
(PID.TID 0000.0001)                       cg2d_iters =    34
(PID.TID 0000.0001)                         cg2d_res =    7.61936513018343E-14
(PID.TID 0000.0001) // =======================================================
(PID.TID 0000.0001) // Begin MONITOR dynamic field statistics
(PID.TID 0000.0001) // =======================================================
(PID.TID 0000.0001) %MON time_tsnumber                =                     5
(PID.TID 0000.0001) %MON time_secondsf                =   6.0000000000000E+03
(PID.TID 0000.0001) %MON time_secondsi                =                  6000
(PID.TID 0000.0001) %MON dynstat_eta_max              =   4.4764720732821E-03
(PID.TID 0000.0001) %MON dynstat_eta_min              =  -4.3538509400975E-03
(PID.TID 0000.0001) %MON dynstat_eta_mean             =  -3.5042267634718E-06
(PID.TID 0000.0001) %MON dynstat_eta_sd               =   1.0571663878845E-03
(PID.TID 0000.0001) %MON dynstat_uvel_max             =   1.3440737411437E-03
(PID.TID 0000.0001) %MON dynstat_uvel_min             =  -2.9523636427308E-04
(PID.TID 0000.0001) %MON dynstat_uvel_mean            =   1.7957260001803E-04
(PID.TID 0000.0001) %MON dynstat_uvel_sd              =   4.2348385055492E-04
(PID.TID 0000.0001) %MON dynstat_vvel_max             =   1.4281715792004E-04
(PID.TID 0000.0001) %MON dynstat_vvel_min             =  -1.3772025569249E-04
(PID.TID 0000.0001) %MON dynstat_vvel_mean            =   7.4280998132921E-07
(PID.TID 0000.0001) %MON dynstat_vvel_sd              =   4.1500875326421E-05
(PID.TID 0000.0001) %MON dynstat_wvel_max             =   3.1970733924373E-06
(PID.TID 0000.0001) %MON dynstat_wvel_min             =  -3.1987059671516E-06
(PID.TID 0000.0001) %MON dynstat_wvel_mean            =  -1.5536044958308E-10
(PID.TID 0000.0001) %MON dynstat_wvel_sd              =   2.9844691598559E-07
(PID.TID 0000.0001) %MON dynstat_theta_max            =   1.9997429016179E+01
(PID.TID 0000.0001) %MON dynstat_theta_min            =   6.0005297781012E+00
(PID.TID 0000.0001) %MON dynstat_theta_mean           =   1.0999999998047E+01
(PID.TID 0000.0001) %MON dynstat_theta_sd             =   5.3838174890156E+00
(PID.TID 0000.0001) %MON dynstat_salt_max             =   1.0000000000000E+01
(PID.TID 0000.0001) %MON dynstat_salt_min             =   1.0000000000000E+01
(PID.TID 0000.0001) %MON dynstat_salt_mean            =   1.0000000000000E+01
(PID.TID 0000.0001) %MON dynstat_salt_sd              =   0.0000000000000E+00
(PID.TID 0000.0001) %MON advcfl_uvel_max              =   1.4507884168722E-05
(PID.TID 0000.0001) %MON advcfl_vvel_max              =   1.5415046262239E-06
(PID.TID 0000.0001) %MON advcfl_wvel_max              =   7.6768943211639E-06
(PID.TID 0000.0001) %MON ke_max                       =   9.0329682667620E-07
(PID.TID 0000.0001) %MON ke_mean                      =   1.0484618946695E-07
(PID.TID 0000.0001) // =======================================================
(PID.TID 0000.0001) // End MONITOR dynamic field statistics
(PID.TID 0000.0001) // =======================================================
 cg2d: Sum(rhs),rhsMax =  -3.13166159671141E-13  2.49632812088693E-02
(PID.TID 0000.0001)                    cg2d_init_res =    2.73407047707953E+00
(PID.TID 0000.0001)                       cg2d_iters =    34
(PID.TID 0000.0001)                         cg2d_res =    7.65803388900988E-14
(PID.TID 0000.0001) // =======================================================
(PID.TID 0000.0001) // Begin MONITOR dynamic field statistics
(PID.TID 0000.0001) // =======================================================
(PID.TID 0000.0001) %MON time_tsnumber                =                     6
(PID.TID 0000.0001) %MON time_secondsf                =   7.2000000000000E+03
(PID.TID 0000.0001) %MON time_secondsi                =                  7200
(PID.TID 0000.0001) %MON dynstat_eta_max              =   5.3146049392619E-03
(PID.TID 0000.0001) %MON dynstat_eta_min              =  -5.1179052932643E-03
(PID.TID 0000.0001) %MON dynstat_eta_mean             =  -5.4885720489802E-06
(PID.TID 0000.0001) %MON dynstat_eta_sd               =   1.3441793242996E-03
(PID.TID 0000.0001) %MON dynstat_uvel_max             =   1.5840192385881E-03
(PID.TID 0000.0001) %MON dynstat_uvel_min             =  -3.5494423256252E-04
(PID.TID 0000.0001) %MON dynstat_uvel_mean            =   2.0416286033098E-04
(PID.TID 0000.0001) %MON dynstat_uvel_sd              =   4.9819520506082E-04
(PID.TID 0000.0001) %MON dynstat_vvel_max             =   1.9914134039405E-04
(PID.TID 0000.0001) %MON dynstat_vvel_min             =  -1.9210890881691E-04
(PID.TID 0000.0001) %MON dynstat_vvel_mean            =   1.0097112357126E-06
(PID.TID 0000.0001) %MON dynstat_vvel_sd              =   5.7906891936873E-05
(PID.TID 0000.0001) %MON dynstat_wvel_max             =   4.0088471431857E-06
(PID.TID 0000.0001) %MON dynstat_wvel_min             =  -4.0123120528971E-06
(PID.TID 0000.0001) %MON dynstat_wvel_mean            =  -1.8835622592050E-10
(PID.TID 0000.0001) %MON dynstat_wvel_sd              =   3.6490478104616E-07
(PID.TID 0000.0001) %MON dynstat_theta_max            =   1.9997003243892E+01
(PID.TID 0000.0001) %MON dynstat_theta_min            =   6.0006221635822E+00
(PID.TID 0000.0001) %MON dynstat_theta_mean           =   1.0999999995710E+01
(PID.TID 0000.0001) %MON dynstat_theta_sd             =   5.3835769819352E+00
(PID.TID 0000.0001) %MON dynstat_salt_max             =   1.0000000000000E+01
(PID.TID 0000.0001) %MON dynstat_salt_min             =   1.0000000000000E+01
(PID.TID 0000.0001) %MON dynstat_salt_mean            =   1.0000000000000E+01
(PID.TID 0000.0001) %MON dynstat_salt_sd              =   0.0000000000000E+00
(PID.TID 0000.0001) %MON advcfl_uvel_max              =   1.7097847336045E-05
(PID.TID 0000.0001) %MON advcfl_vvel_max              =   2.1494426997470E-06
(PID.TID 0000.0001) %MON advcfl_wvel_max              =   9.6295489269530E-06
(PID.TID 0000.0001) %MON ke_max                       =   1.2546167481643E-06
(PID.TID 0000.0001) %MON ke_mean                      =   1.4413253800858E-07
(PID.TID 0000.0001) // =======================================================
(PID.TID 0000.0001) // End MONITOR dynamic field statistics
(PID.TID 0000.0001) // =======================================================
 cg2d: Sum(rhs),rhsMax =  -2.72032396608779E-13  2.81661048258965E-02
(PID.TID 0000.0001)                    cg2d_init_res =    2.58574430220921E+00
(PID.TID 0000.0001)                       cg2d_iters =    34
(PID.TID 0000.0001)                         cg2d_res =    6.87507006204916E-14
(PID.TID 0000.0001) // =======================================================
(PID.TID 0000.0001) // Begin MONITOR dynamic field statistics
(PID.TID 0000.0001) // =======================================================
(PID.TID 0000.0001) %MON time_tsnumber                =                     7
(PID.TID 0000.0001) %MON time_secondsf                =   8.4000000000000E+03
(PID.TID 0000.0001) %MON time_secondsi                =                  8400
(PID.TID 0000.0001) %MON dynstat_eta_max              =   6.1456932274643E-03
(PID.TID 0000.0001) %MON dynstat_eta_min              =  -5.8535247429988E-03
(PID.TID 0000.0001) %MON dynstat_eta_mean             =  -7.9537528452498E-06
(PID.TID 0000.0001) %MON dynstat_eta_sd               =   1.6509993505464E-03
(PID.TID 0000.0001) %MON dynstat_uvel_max             =   1.8239020181850E-03
(PID.TID 0000.0001) %MON dynstat_uvel_min             =  -4.1462879260394E-04
(PID.TID 0000.0001) %MON dynstat_uvel_mean            =   2.2649800231698E-04
(PID.TID 0000.0001) %MON dynstat_uvel_sd              =   5.7236506605867E-04
(PID.TID 0000.0001) %MON dynstat_vvel_max             =   2.6328191060906E-04
(PID.TID 0000.0001) %MON dynstat_vvel_min             =  -2.5406245909719E-04
(PID.TID 0000.0001) %MON dynstat_vvel_mean            =   1.2998953056085E-06
(PID.TID 0000.0001) %MON dynstat_vvel_sd              =   7.6642932732252E-05
(PID.TID 0000.0001) %MON dynstat_wvel_max             =   4.8165610531218E-06
(PID.TID 0000.0001) %MON dynstat_wvel_min             =  -4.8229810086934E-06
(PID.TID 0000.0001) %MON dynstat_wvel_mean            =  -1.9630925273206E-10
(PID.TID 0000.0001) %MON dynstat_wvel_sd              =   4.3054373102002E-07
(PID.TID 0000.0001) %MON dynstat_theta_max            =   1.9996587206380E+01
(PID.TID 0000.0001) %MON dynstat_theta_min            =   6.0007139077952E+00
(PID.TID 0000.0001) %MON dynstat_theta_mean           =   1.0999999991794E+01
(PID.TID 0000.0001) %MON dynstat_theta_sd             =   5.3833364991607E+00
(PID.TID 0000.0001) %MON dynstat_salt_max             =   1.0000000000000E+01
(PID.TID 0000.0001) %MON dynstat_salt_min             =   1.0000000000000E+01
(PID.TID 0000.0001) %MON dynstat_salt_mean            =   1.0000000000000E+01
(PID.TID 0000.0001) %MON dynstat_salt_sd              =   0.0000000000000E+00
(PID.TID 0000.0001) %MON advcfl_uvel_max              =   1.9687133529154E-05
(PID.TID 0000.0001) %MON advcfl_vvel_max              =   2.8417473720640E-06
(PID.TID 0000.0001) %MON advcfl_wvel_max              =   1.1575154420864E-05
(PID.TID 0000.0001) %MON ke_max                       =   1.6634117346413E-06
(PID.TID 0000.0001) %MON ke_mean                      =   1.8912863288377E-07
(PID.TID 0000.0001) // =======================================================
(PID.TID 0000.0001) // End MONITOR dynamic field statistics
(PID.TID 0000.0001) // =======================================================
 cg2d: Sum(rhs),rhsMax =  -5.63687985177808E-13  3.13504638481571E-02
(PID.TID 0000.0001)                    cg2d_init_res =    2.45939264348956E+00
(PID.TID 0000.0001)                       cg2d_iters =    34
(PID.TID 0000.0001)                         cg2d_res =    6.57682513428649E-14
(PID.TID 0000.0001) // =======================================================
(PID.TID 0000.0001) // Begin MONITOR dynamic field statistics
(PID.TID 0000.0001) // =======================================================
(PID.TID 0000.0001) %MON time_tsnumber                =                     8
(PID.TID 0000.0001) %MON time_secondsf                =   9.6000000000000E+03
(PID.TID 0000.0001) %MON time_secondsi                =                  9600
(PID.TID 0000.0001) %MON dynstat_eta_max              =   6.9677878514117E-03
(PID.TID 0000.0001) %MON dynstat_eta_min              =  -6.5577232377594E-03
(PID.TID 0000.0001) %MON dynstat_eta_mean             =  -1.0882209004037E-05
(PID.TID 0000.0001) %MON dynstat_eta_sd               =   1.9760277193712E-03
(PID.TID 0000.0001) %MON dynstat_uvel_max             =   2.0636441541874E-03
(PID.TID 0000.0001) %MON dynstat_uvel_min             =  -4.7430513849914E-04
(PID.TID 0000.0001) %MON dynstat_uvel_mean            =   2.4658488432019E-04
(PID.TID 0000.0001) %MON dynstat_uvel_sd              =   6.4589572456575E-04
(PID.TID 0000.0001) %MON dynstat_vvel_max             =   3.3458683601965E-04
(PID.TID 0000.0001) %MON dynstat_vvel_min             =  -3.2294933500759E-04
(PID.TID 0000.0001) %MON dynstat_vvel_mean            =   1.6075626113697E-06
(PID.TID 0000.0001) %MON dynstat_vvel_sd              =   9.7603747442086E-05
(PID.TID 0000.0001) %MON dynstat_wvel_max             =   5.6212263336457E-06
(PID.TID 0000.0001) %MON dynstat_wvel_min             =  -5.6320638037725E-06
(PID.TID 0000.0001) %MON dynstat_wvel_mean            =  -1.6898836408809E-10
(PID.TID 0000.0001) %MON dynstat_wvel_sd              =   4.9543074433505E-07
(PID.TID 0000.0001) %MON dynstat_theta_max            =   1.9996180892137E+01
(PID.TID 0000.0001) %MON dynstat_theta_min            =   6.0008050152590E+00
(PID.TID 0000.0001) %MON dynstat_theta_mean           =   1.0999999985734E+01
(PID.TID 0000.0001) %MON dynstat_theta_sd             =   5.3830960403836E+00
(PID.TID 0000.0001) %MON dynstat_salt_max             =   1.0000000000000E+01
(PID.TID 0000.0001) %MON dynstat_salt_min             =   1.0000000000000E+01
(PID.TID 0000.0001) %MON dynstat_salt_mean            =   1.0000000000000E+01
(PID.TID 0000.0001) %MON dynstat_salt_sd              =   0.0000000000000E+00
(PID.TID 0000.0001) %MON advcfl_uvel_max              =   2.2274901620304E-05
(PID.TID 0000.0001) %MON advcfl_vvel_max              =   3.6113808950508E-06
(PID.TID 0000.0001) %MON advcfl_wvel_max              =   1.3516953129054E-05
(PID.TID 0000.0001) %MON ke_max                       =   2.1294791666691E-06
(PID.TID 0000.0001) %MON ke_mean                      =   2.3962575543787E-07
(PID.TID 0000.0001) // =======================================================
(PID.TID 0000.0001) // End MONITOR dynamic field statistics
(PID.TID 0000.0001) // =======================================================
 cg2d: Sum(rhs),rhsMax =  -4.57495152872411E-13  3.45070050778410E-02
(PID.TID 0000.0001)                    cg2d_init_res =    2.34990179150874E+00
(PID.TID 0000.0001)                       cg2d_iters =    34
(PID.TID 0000.0001)                         cg2d_res =    6.30482116953683E-14
(PID.TID 0000.0001) // =======================================================
(PID.TID 0000.0001) // Begin MONITOR dynamic field statistics
(PID.TID 0000.0001) // =======================================================
(PID.TID 0000.0001) %MON time_tsnumber                =                     9
(PID.TID 0000.0001) %MON time_secondsf                =   1.0800000000000E+04
(PID.TID 0000.0001) %MON time_secondsi                =                 10800
(PID.TID 0000.0001) %MON dynstat_eta_max              =   7.7788024236909E-03
(PID.TID 0000.0001) %MON dynstat_eta_min              =  -7.2279946615169E-03
(PID.TID 0000.0001) %MON dynstat_eta_mean             =  -1.4237209701986E-05
(PID.TID 0000.0001) %MON dynstat_eta_sd               =   2.3178903246342E-03
(PID.TID 0000.0001) %MON dynstat_uvel_max             =   2.3030818575217E-03
(PID.TID 0000.0001) %MON dynstat_uvel_min             =  -5.3397224282942E-04
(PID.TID 0000.0001) %MON dynstat_uvel_mean            =   2.6443912526791E-04
(PID.TID 0000.0001) %MON dynstat_uvel_sd              =   7.1869276765162E-04
(PID.TID 0000.0001) %MON dynstat_vvel_max             =   4.1286080876365E-04
(PID.TID 0000.0001) %MON dynstat_vvel_min             =  -3.9809411450374E-04
(PID.TID 0000.0001) %MON dynstat_vvel_mean            =   1.9269348499856E-06
(PID.TID 0000.0001) %MON dynstat_vvel_sd              =   1.2068602444610E-04
(PID.TID 0000.0001) %MON dynstat_wvel_max             =   6.4222618788891E-06
(PID.TID 0000.0001) %MON dynstat_wvel_min             =  -6.4393458588546E-06
(PID.TID 0000.0001) %MON dynstat_wvel_mean            =  -9.6668729264235E-11
(PID.TID 0000.0001) %MON dynstat_wvel_sd              =   5.5950803684000E-07
(PID.TID 0000.0001) %MON dynstat_theta_max            =   1.9995784275802E+01
(PID.TID 0000.0001) %MON dynstat_theta_min            =   6.0008954920527E+00
(PID.TID 0000.0001) %MON dynstat_theta_mean           =   1.0999999976888E+01
(PID.TID 0000.0001) %MON dynstat_theta_sd             =   5.3828556052549E+00
(PID.TID 0000.0001) %MON dynstat_salt_max             =   1.0000000000000E+01
(PID.TID 0000.0001) %MON dynstat_salt_min             =   1.0000000000000E+01
(PID.TID 0000.0001) %MON dynstat_salt_mean            =   1.0000000000000E+01
(PID.TID 0000.0001) %MON dynstat_salt_sd              =   0.0000000000000E+00
(PID.TID 0000.0001) %MON advcfl_uvel_max              =   2.4859383676060E-05
(PID.TID 0000.0001) %MON advcfl_vvel_max              =   4.4562352028600E-06
(PID.TID 0000.0001) %MON advcfl_wvel_max              =   1.5454430061251E-05
(PID.TID 0000.0001) %MON ke_max                       =   2.6523420399837E-06
(PID.TID 0000.0001) %MON ke_mean                      =   2.9541472999711E-07
(PID.TID 0000.0001) // =======================================================
(PID.TID 0000.0001) // End MONITOR dynamic field statistics
(PID.TID 0000.0001) // =======================================================
 cg2d: Sum(rhs),rhsMax =  -3.90770749092439E-13  3.76271995271002E-02
(PID.TID 0000.0001)                    cg2d_init_res =    2.25359994993416E+00
(PID.TID 0000.0001)                       cg2d_iters =    34
(PID.TID 0000.0001)                         cg2d_res =    5.95818232573475E-14
(PID.TID 0000.0001) // =======================================================
(PID.TID 0000.0001) // Begin MONITOR dynamic field statistics
(PID.TID 0000.0001) // =======================================================
(PID.TID 0000.0001) %MON time_tsnumber                =                    10
(PID.TID 0000.0001) %MON time_secondsf                =   1.2000000000000E+04
(PID.TID 0000.0001) %MON time_secondsi                =                 12000
(PID.TID 0000.0001) %MON dynstat_eta_max              =   8.5765329480532E-03
(PID.TID 0000.0001) %MON dynstat_eta_min              =  -7.8623566938076E-03
(PID.TID 0000.0001) %MON dynstat_eta_mean             =  -1.7964555357356E-05
(PID.TID 0000.0001) %MON dynstat_eta_sd               =   2.6753562656418E-03
(PID.TID 0000.0001) %MON dynstat_uvel_max             =   2.5419105821116E-03
(PID.TID 0000.0001) %MON dynstat_uvel_min             =  -5.9363003459661E-04
(PID.TID 0000.0001) %MON dynstat_uvel_mean            =   2.8008419400705E-04
(PID.TID 0000.0001) %MON dynstat_uvel_sd              =   7.9066562698845E-04
(PID.TID 0000.0001) %MON dynstat_vvel_max             =   4.9739033513836E-04
(PID.TID 0000.0001) %MON dynstat_vvel_min             =  -4.7886765614838E-04
(PID.TID 0000.0001) %MON dynstat_vvel_mean            =   2.2523238753291E-06
(PID.TID 0000.0001) %MON dynstat_vvel_sd              =   1.4579063048897E-04
(PID.TID 0000.0001) %MON dynstat_wvel_max             =   7.2188519387670E-06
(PID.TID 0000.0001) %MON dynstat_wvel_min             =  -7.2443986707333E-06
(PID.TID 0000.0001) %MON dynstat_wvel_mean            =   2.9606063821806E-11
(PID.TID 0000.0001) %MON dynstat_wvel_sd              =   6.2270291983766E-07
(PID.TID 0000.0001) %MON dynstat_theta_max            =   1.9995397325319E+01
(PID.TID 0000.0001) %MON dynstat_theta_min            =   6.0009853453438E+00
(PID.TID 0000.0001) %MON dynstat_theta_mean           =   1.0999999964547E+01
(PID.TID 0000.0001) %MON dynstat_theta_sd             =   5.3826151933897E+00
(PID.TID 0000.0001) %MON dynstat_salt_max             =   1.0000000000000E+01
(PID.TID 0000.0001) %MON dynstat_salt_min             =   1.0000000000000E+01
(PID.TID 0000.0001) %MON dynstat_salt_mean            =   1.0000000000000E+01
(PID.TID 0000.0001) %MON dynstat_salt_sd              =   0.0000000000000E+00
(PID.TID 0000.0001) %MON advcfl_uvel_max              =   2.7437292436903E-05
(PID.TID 0000.0001) %MON advcfl_vvel_max              =   5.3686091630817E-06
(PID.TID 0000.0001) %MON advcfl_wvel_max              =   1.7386556809760E-05
(PID.TID 0000.0001) %MON ke_max                       =   3.2310043753322E-06
(PID.TID 0000.0001) %MON ke_mean                      =   3.5628675999508E-07
(PID.TID 0000.0001) // =======================================================
(PID.TID 0000.0001) // End MONITOR dynamic field statistics
(PID.TID 0000.0001) // =======================================================
(PID.TID 0000.0001)   Seconds in section "ALL                [THE_MODEL_MAIN]":
(PID.TID 0000.0001)           User time:  5.25
(PID.TID 0000.0001)         System time:  0.140000006
(PID.TID 0000.0001)     Wall clock time:  6.31409299
(PID.TID 0000.0001)          No. starts: 1
(PID.TID 0000.0001)           No. stops: 1
(PID.TID 0000.0001)   Seconds in section "INITIALISE_FIXED   [THE_MODEL_MAIN]":
(PID.TID 0000.0001)           User time:  0.180000007
(PID.TID 0000.0001)         System time:  0.00999999978
(PID.TID 0000.0001)     Wall clock time:  0.187381983
(PID.TID 0000.0001)          No. starts: 1
(PID.TID 0000.0001)           No. stops: 1
(PID.TID 0000.0001)   Seconds in section "THE_MAIN_LOOP      [THE_MODEL_MAIN]":
(PID.TID 0000.0001)           User time:  4.93000013
(PID.TID 0000.0001)         System time:  0.0999999978
(PID.TID 0000.0001)     Wall clock time:  5.96138799
(PID.TID 0000.0001)          No. starts: 1
(PID.TID 0000.0001)           No. stops: 1
(PID.TID 0000.0001)   Seconds in section "INITIALISE_VARIA    [THE_MAIN_LOOP]":
(PID.TID 0000.0001)           User time:  0.049999997
(PID.TID 0000.0001)         System time:  0.
(PID.TID 0000.0001)     Wall clock time:  0.0520660877
(PID.TID 0000.0001)          No. starts: 1
(PID.TID 0000.0001)           No. stops: 1
(PID.TID 0000.0001)   Seconds in section "WRITE_STATE         [THE_MAIN_LOOP]":
(PID.TID 0000.0001)           User time:  0.0199999958
(PID.TID 0000.0001)         System time:  0.00999999978
(PID.TID 0000.0001)     Wall clock time:  0.0311050415
(PID.TID 0000.0001)          No. starts: 1
(PID.TID 0000.0001)           No. stops: 1
(PID.TID 0000.0001)   Seconds in section "MONITOR             [THE_MAIN_LOOP]":
(PID.TID 0000.0001)           User time:  0.0200000107
(PID.TID 0000.0001)         System time:  0.
(PID.TID 0000.0001)     Wall clock time:  0.0140049458
(PID.TID 0000.0001)          No. starts: 1
(PID.TID 0000.0001)           No. stops: 1
(PID.TID 0000.0001)   Seconds in section "MAIN LOOP           [THE_MAIN_LOOP]":
(PID.TID 0000.0001)           User time:  4.84000012
(PID.TID 0000.0001)         System time:  0.089999998
(PID.TID 0000.0001)     Wall clock time:  5.86391306
(PID.TID 0000.0001)          No. starts: 1
(PID.TID 0000.0001)           No. stops: 1
(PID.TID 0000.0001)   Seconds in section "EXTERNAL_FIELDS_LOAD[THE_MAIN_LOOP]":
(PID.TID 0000.0001)           User time:  0.
(PID.TID 0000.0001)         System time:  0.
(PID.TID 0000.0001)     Wall clock time:  0.000565767288
(PID.TID 0000.0001)          No. starts: 10
(PID.TID 0000.0001)           No. stops: 10
(PID.TID 0000.0001)   Seconds in section "DYNAMICS            [THE_MAIN_LOOP]":
(PID.TID 0000.0001)           User time:  1.43999964
(PID.TID 0000.0001)         System time:  0.
(PID.TID 0000.0001)     Wall clock time:  1.45152199
(PID.TID 0000.0001)          No. starts: 10
(PID.TID 0000.0001)           No. stops: 10
(PID.TID 0000.0001)   Seconds in section "SOLVE_FOR_PRESSURE  [THE_MAIN_LOOP]":
(PID.TID 0000.0001)           User time:  1.25000051
(PID.TID 0000.0001)         System time:  0.00999999978
(PID.TID 0000.0001)     Wall clock time:  1.55565333
(PID.TID 0000.0001)          No. starts: 10
(PID.TID 0000.0001)           No. stops: 10
(PID.TID 0000.0001)   Seconds in section "THE_CORRECTION_STEP [THE_MAIN_LOOP]":
(PID.TID 0000.0001)           User time:  0.339999914
(PID.TID 0000.0001)         System time:  0.0300000012
(PID.TID 0000.0001)     Wall clock time:  0.588777065
(PID.TID 0000.0001)          No. starts: 10
(PID.TID 0000.0001)           No. stops: 10
(PID.TID 0000.0001)   Seconds in section "BLOCKING_EXCHANGES  [THE_MAIN_LOOP]":
(PID.TID 0000.0001)           User time:  0.419999957
(PID.TID 0000.0001)         System time:  0.0300000012
(PID.TID 0000.0001)     Wall clock time:  0.74723196
(PID.TID 0000.0001)          No. starts: 10
(PID.TID 0000.0001)           No. stops: 10
(PID.TID 0000.0001)   Seconds in section "DO_THE_MODEL_IO     [THE_MAIN_LOOP]":
(PID.TID 0000.0001)           User time:  0.0300002098
(PID.TID 0000.0001)         System time:  0.
(PID.TID 0000.0001)     Wall clock time:  0.0314737558
(PID.TID 0000.0001)          No. starts: 10
(PID.TID 0000.0001)           No. stops: 10
(PID.TID 0000.0001)   Seconds in section "WRITE_CHECKPOINT    [THE_MAIN_LOOP]":
(PID.TID 0000.0001)           User time:  0.
(PID.TID 0000.0001)         System time:  0.
(PID.TID 0000.0001)     Wall clock time:  0.00056385994
(PID.TID 0000.0001)          No. starts: 10
(PID.TID 0000.0001)           No. stops: 10
(PID.TID 0000.0001)   Seconds in section "WRITE_CHECKPOINT   [THE_MODEL_MAIN]":
(PID.TID 0000.0001)           User time:  0.139999866
(PID.TID 0000.0001)         System time:  0.0300000086
(PID.TID 0000.0001)     Wall clock time:  0.165064931
(PID.TID 0000.0001)          No. starts: 1
(PID.TID 0000.0001)           No. stops: 1
(PID.TID 0000.0001) // ======================================================
(PID.TID 0000.0001) // Tile <-> Tile communication statistics
(PID.TID 0000.0001) // ======================================================
(PID.TID 0000.0001) // o Tile number: 000001
(PID.TID 0000.0001) //         No. X exchanges =              0
(PID.TID 0000.0001) //            Max. X spins =              0
(PID.TID 0000.0001) //            Min. X spins =     1000000000
(PID.TID 0000.0001) //          Total. X spins =              0
(PID.TID 0000.0001) //            Avg. X spins =       0.00E+00
(PID.TID 0000.0001) //         No. Y exchanges =              0
(PID.TID 0000.0001) //            Max. Y spins =              0
(PID.TID 0000.0001) //            Min. Y spins =     1000000000
(PID.TID 0000.0001) //          Total. Y spins =              0
(PID.TID 0000.0001) //            Avg. Y spins =       0.00E+00
(PID.TID 0000.0001) // o Tile number: 000002
(PID.TID 0000.0001) //         No. X exchanges =              0
(PID.TID 0000.0001) //            Max. X spins =              0
(PID.TID 0000.0001) //            Min. X spins =     1000000000
(PID.TID 0000.0001) //          Total. X spins =              0
(PID.TID 0000.0001) //            Avg. X spins =       0.00E+00
(PID.TID 0000.0001) //         No. Y exchanges =              0
(PID.TID 0000.0001) //            Max. Y spins =              0
(PID.TID 0000.0001) //            Min. Y spins =     1000000000
(PID.TID 0000.0001) //          Total. Y spins =              0
(PID.TID 0000.0001) //            Avg. Y spins =       0.00E+00
(PID.TID 0000.0001) // o Tile number: 000003
(PID.TID 0000.0001) //         No. X exchanges =              0
(PID.TID 0000.0001) //            Max. X spins =              0
(PID.TID 0000.0001) //            Min. X spins =     1000000000
(PID.TID 0000.0001) //          Total. X spins =              0
(PID.TID 0000.0001) //            Avg. X spins =       0.00E+00
(PID.TID 0000.0001) //         No. Y exchanges =              0
(PID.TID 0000.0001) //            Max. Y spins =              0
(PID.TID 0000.0001) //            Min. Y spins =     1000000000
(PID.TID 0000.0001) //          Total. Y spins =              0
(PID.TID 0000.0001) //            Avg. Y spins =       0.00E+00
(PID.TID 0000.0001) // o Tile number: 000004
(PID.TID 0000.0001) //         No. X exchanges =              0
(PID.TID 0000.0001) //            Max. X spins =              0
(PID.TID 0000.0001) //            Min. X spins =     1000000000
(PID.TID 0000.0001) //          Total. X spins =              0
(PID.TID 0000.0001) //            Avg. X spins =       0.00E+00
(PID.TID 0000.0001) //         No. Y exchanges =              0
(PID.TID 0000.0001) //            Max. Y spins =              0
(PID.TID 0000.0001) //            Min. Y spins =     1000000000
(PID.TID 0000.0001) //          Total. Y spins =              0
(PID.TID 0000.0001) //            Avg. Y spins =       0.00E+00
(PID.TID 0000.0001) // o Thread number: 000001
(PID.TID 0000.0001) //            No. barriers =           6592
(PID.TID 0000.0001) //      Max. barrier spins =              1
(PID.TID 0000.0001) //      Min. barrier spins =              1
(PID.TID 0000.0001) //     Total barrier spins =           6592
(PID.TID 0000.0001) //      Avg. barrier spins =       1.00E+00
