(PID.TID 0000.0001) 
(PID.TID 0000.0001) // ======================================================
(PID.TID 0000.0001) //                      MITgcm UV
(PID.TID 0000.0001) //                      =========
(PID.TID 0000.0001) // ======================================================
(PID.TID 0000.0001) // execution environment starting up...
(PID.TID 0000.0001) 
(PID.TID 0000.0001) // MITgcmUV version:  checkpoint63n
(PID.TID 0000.0001) // Build user:        heimbach
(PID.TID 0000.0001) // Build host:        weddell.mit.edu
(PID.TID 0000.0001) // Build date:        Fri Jun  8 10:46:27 EDT 2012
(PID.TID 0000.0001) 
(PID.TID 0000.0001) // =======================================================
(PID.TID 0000.0001) // Execution Environment parameter file "eedata"
(PID.TID 0000.0001) // =======================================================
(PID.TID 0000.0001) ># Example "eedata" file
(PID.TID 0000.0001) ># Lines beginning "#" are comments
(PID.TID 0000.0001) ># nTx - No. threads per process in X
(PID.TID 0000.0001) ># nTy - No. threads per process in Y
(PID.TID 0000.0001) > &EEPARMS
(PID.TID 0000.0001) > nTx=1,
(PID.TID 0000.0001) > nTy=1,
(PID.TID 0000.0001) > /
(PID.TID 0000.0001) ># Note: Some systems use & as the
(PID.TID 0000.0001) ># namelist terminator. Other systems
(PID.TID 0000.0001) ># use a / character (as shown here).
(PID.TID 0000.0001) 
(PID.TID 0000.0001) // =======================================================
(PID.TID 0000.0001) // Computational Grid Specification ( see files "SIZE.h" )
(PID.TID 0000.0001) //                                  ( and "eedata"       )
(PID.TID 0000.0001) // =======================================================
(PID.TID 0000.0001)      nPx =    1 ; /* No. processes in X */
(PID.TID 0000.0001)      nPy =    1 ; /* No. processes in Y */
(PID.TID 0000.0001)      nSx =    1 ; /* No. tiles in X per process */
(PID.TID 0000.0001)      nSy =    1 ; /* No. tiles in Y per process */
(PID.TID 0000.0001)      sNx =    1 ; /* Tile size in X */
(PID.TID 0000.0001)      sNy =    1 ; /* Tile size in Y */
(PID.TID 0000.0001)      OLx =    3 ; /* Tile overlap distance in X */
(PID.TID 0000.0001)      OLy =    3 ; /* Tile overlap distance in Y */
(PID.TID 0000.0001)      nTx =    1 ; /* No. threads in X per process */
(PID.TID 0000.0001)      nTy =    1 ; /* No. threads in Y per process */
(PID.TID 0000.0001)       Nr =   23 ; /* No. levels in the vertical   */
(PID.TID 0000.0001)       Nx =    1 ; /* Total domain size in X ( = nPx*nSx*sNx ) */
(PID.TID 0000.0001)       Ny =    1 ; /* Total domain size in Y ( = nPy*nSy*sNy ) */
(PID.TID 0000.0001)   nTiles =    1 ; /* Total no. tiles per process ( = nSx*nSy ) */
(PID.TID 0000.0001)   nProcs =    1 ; /* Total no. processes ( = nPx*nPy ) */
(PID.TID 0000.0001) nThreads =    1 ; /* Total no. threads per process ( = nTx*nTy ) */
(PID.TID 0000.0001) usingMPI =    F ; /* Flag used to control whether MPI is in use */
(PID.TID 0000.0001)                   /*  note: To execute a program with MPI calls */
(PID.TID 0000.0001)                   /*  it must be launched appropriately e.g     */
(PID.TID 0000.0001)                   /*  "mpirun -np 64 ......"                    */
(PID.TID 0000.0001) useCoupler=    F ;/* Flag used to control communications with   */
(PID.TID 0000.0001)                   /*  other model components, through a coupler */
(PID.TID 0000.0001) debugMode =    F ; /* print debug msg. (sequence of S/R calls)  */
(PID.TID 0000.0001) printMapIncludesZeros=    F ; /* print zeros in Std.Output maps */
(PID.TID 0000.0001) maxLengthPrt1D=   65 /* maxLength of 1D array printed to StdOut */
(PID.TID 0000.0001) 
(PID.TID 0000.0001) // ======================================================
(PID.TID 0000.0001) // Mapping of tiles to threads
(PID.TID 0000.0001) // ======================================================
(PID.TID 0000.0001) // -o- Thread   1, tiles (   1:   1,   1:   1)
(PID.TID 0000.0001) 
(PID.TID 0000.0001) // ======================================================
(PID.TID 0000.0001) // Tile <-> Tile connectvity table
(PID.TID 0000.0001) // ======================================================
(PID.TID 0000.0001) // Tile number: 000001 (process no. = 000001)
(PID.TID 0000.0001) //        WEST: Tile = 000001, Process = 000001, Comm = put
(PID.TID 0000.0001) //                bi = 000001, bj = 000001
(PID.TID 0000.0001) //        EAST: Tile = 000001, Process = 000001, Comm = put
(PID.TID 0000.0001) //                bi = 000001, bj = 000001
(PID.TID 0000.0001) //       SOUTH: Tile = 000001, Process = 000001, Comm = put
(PID.TID 0000.0001) //                bi = 000001, bj = 000001
(PID.TID 0000.0001) //       NORTH: Tile = 000001, Process = 000001, Comm = put
(PID.TID 0000.0001) //                bi = 000001, bj = 000001
(PID.TID 0000.0001) 
(PID.TID 0000.0001)  INI_PARMS: opening model parameter file "data"
(PID.TID 0000.0001)  OPEN_COPY_DATA_FILE: opening file data
(PID.TID 0000.0001) // =======================================================
(PID.TID 0000.0001) // Parameter file "data"
(PID.TID 0000.0001) // =======================================================
(PID.TID 0000.0001) ># ====================
(PID.TID 0000.0001) ># | Model parameters |
(PID.TID 0000.0001) ># ====================
(PID.TID 0000.0001) >#
(PID.TID 0000.0001) ># Continuous equation parameters
(PID.TID 0000.0001) >#
(PID.TID 0000.0001) >#   tRef            - Reference vertical potential temperature          (deg C)
(PID.TID 0000.0001) >#   sRef            - Reference vertical salinity                         (PSU)
(PID.TID 0000.0001) >#   viscAh          - Horizontal eddy viscosity coefficient             (m^2/s)
(PID.TID 0000.0001) >#   viscAz          - Vertical eddy viscosity coefficient               (m^2/s)
(PID.TID 0000.0001) >#   diffKhT         - Horizontal temperature diffusivity                (m^2/s)
(PID.TID 0000.0001) >#   diffKzT         - Vertical temperature diffusivity                  (m^2/s)
(PID.TID 0000.0001) >#   diffKhS         - Horizontal salt diffusivity                       (m^2/s)
(PID.TID 0000.0001) >#   diffKzS         - Vertical salt diffusivity                         (m^2/s)
(PID.TID 0000.0001) >#   f0              - Reference coriolis parameter,
(PID.TID 0000.0001) >#                     south edge of f on beta plane                       (1/s)
(PID.TID 0000.0001) >#   beta            - df/dy                                         (s^-1.m^-1)
(PID.TID 0000.0001) >#   tAlpha          - Linear EOS thermal expansion coefficient           (1/oC)
(PID.TID 0000.0001) >#   sBeta           - Linear EOS haline contraction coefficient         (1/ppt)
(PID.TID 0000.0001) >#   gravity         - Acceleration due to gravity                       (m/s^2)
(PID.TID 0000.0001) >#   gBaro           - Accel. due to gravity used in barotropic equation (m/s^2)
(PID.TID 0000.0001) >#   rigidLid        - Set to true to use rigid lid
(PID.TID 0000.0001) >#   implicitFreeSurface - Set to true to use implicit free surface
(PID.TID 0000.0001) >#   eosType         - Flag for linear or polynomial equation of state
(PID.TID 0000.0001) >#   momAdvection    - On/Off flag for momentum self transport
(PID.TID 0000.0001) >#   momViscosity    - On/Off flag for momentum mixing
(PID.TID 0000.0001) >#
(PID.TID 0000.0001) > &PARM01
(PID.TID 0000.0001) ># an's T,S profiles @ 23 levels
(PID.TID 0000.0001) > tRef               = -1.930,-1.931,-1.932,-1.2854,-0.6,-0.6,-0.9,-1.2,-1.2,-1.3,
(PID.TID 0000.0001) >                      -1.4,-1.4,-1.5,-1.5,-1.5,-1.5,-1.3,-0.9,-0.3, 0.2,
(PID.TID 0000.0001) >                       0.5, 0.5, 0.5,
(PID.TID 0000.0001) >
(PID.TID 0000.0001) ># tRef to use for 11,000 time step adjoint calculations
(PID.TID 0000.0001) ># tRef = -1.8420,-1.8464,-1.8392,-1.2854,-0.6,-0.6,-0.9,-1.2,-1.2,-1.3,
(PID.TID 0000.0001) ># 	-1.4,-1.4,-1.5,-1.5,-1.5,-1.5,-1.3,-0.9,-0.3, 0.2,
(PID.TID 0000.0001) ># 	0.5, 0.5, 0.5
(PID.TID 0000.0001) >
(PID.TID 0000.0001) > sRef               = 29.0079,29.0080,29.0086,29.0775,30.7,31.6,31.9,32.1,32.3,32.4,
(PID.TID 0000.0001) >                      32.5,32.7,32.8,32.9,33.1,33.4,33.8,34.2,34.5,34.7,
(PID.TID 0000.0001) >                      34.8,34.8,34.8,
(PID.TID 0000.0001) > no_slip_sides=.FALSE.,
(PID.TID 0000.0001) > no_slip_bottom=.TRUE.,
(PID.TID 0000.0001) > viscAz=1.93e-5,
(PID.TID 0000.0001) > viscAh=5.E4,
(PID.TID 0000.0001) > diffKhT=0.0,
(PID.TID 0000.0001) > diffKzT=1.46e-7,
(PID.TID 0000.0001) > diffKhS=0.0,
(PID.TID 0000.0001) > diffKzS=1.46e-7,
(PID.TID 0000.0001) ># beta=1.E-11,
(PID.TID 0000.0001) ># 1-D setups work best with an f-plane due to unequal Coriolis force on north
(PID.TID 0000.0001) ># and south faces
(PID.TID 0000.0001) > selectCoriMap=0,
(PID.TID 0000.0001) > rigidLid=.FALSE.,
(PID.TID 0000.0001) > implicitFreeSurface=.TRUE.,
(PID.TID 0000.0001) > eosType='JMD95Z',
(PID.TID 0000.0001) > readBinaryPrec=32,
(PID.TID 0000.0001) > writeBinaryPrec=32,
(PID.TID 0000.0001) > saltStepping=.TRUE.,
(PID.TID 0000.0001) > tempStepping=.TRUE.,
(PID.TID 0000.0001) > momStepping=.TRUE.,
(PID.TID 0000.0001) > implicitDiffusion=.TRUE.,
(PID.TID 0000.0001) > implicitViscosity=.TRUE.,
(PID.TID 0000.0001) >#globalFiles=.TRUE.,
(PID.TID 0000.0001) >#- not safe to use globalFiles in multi-processors runs; set instead useSingleCpuIO
(PID.TID 0000.0001) > useSingleCpuIO=.FALSE.,
(PID.TID 0000.0001) > allowFreezing=.FALSE.,
(PID.TID 0000.0001) >#- set wrong celsius2K to reproduce old results:
(PID.TID 0000.0001) > celsius2K=273.16,
(PID.TID 0000.0001) > HeatCapacity_Cp = 3986.0,
(PID.TID 0000.0001) > gravity         = 9.8156,
(PID.TID 0000.0001) > rhoConst        = 1027.0,
(PID.TID 0000.0001) > rhoConstFresh   = 999.8,
(PID.TID 0000.0001) > useCDscheme=.FALSE.,
(PID.TID 0000.0001) > inAdExact=.TRUE.,
(PID.TID 0000.0001) > staggerTimeStep=.TRUE.,
(PID.TID 0000.0001) > multiDimAdvection=.false.,
(PID.TID 0000.0001) > tempAdvScheme=30,
(PID.TID 0000.0001) > saltAdvScheme=30,
(PID.TID 0000.0001) >
(PID.TID 0000.0001) > vectorInvariantMomentum=.TRUE.,
(PID.TID 0000.0001) > useRealFreshWaterFlux = .TRUE.,
(PID.TID 0000.0001) ># debugLevel=1,
(PID.TID 0000.0001) > /
(PID.TID 0000.0001) >
(PID.TID 0000.0001) ># Elliptic solver parameters
(PID.TID 0000.0001) >#
(PID.TID 0000.0001) >#   cg2dMaxIters       - Maximum number of 2d solver iterations
(PID.TID 0000.0001) >#   cg2dTargetResidual - Solver target residual
(PID.TID 0000.0001) >#
(PID.TID 0000.0001) > &PARM02
(PID.TID 0000.0001) > cg2dMaxIters=1000,
(PID.TID 0000.0001) > cg2dTargetResidual=1.D-13,
(PID.TID 0000.0001) > /
(PID.TID 0000.0001) >
(PID.TID 0000.0001) ># Time stepping parameters
(PID.TID 0000.0001) >#
(PID.TID 0000.0001) >#   startTime         - Integration starting time                (s)
(PID.TID 0000.0001) >#   endTime           - Integration ending time                  (s)
(PID.TID 0000.0001) >#   tauCD             - CD scheme coupling timescale             (s)
(PID.TID 0000.0001) >#   deltaTMom         - Timestep for momemtum equations          (s)
(PID.TID 0000.0001) >#   deltaTtracer      - Tracer timestep                          (s)
(PID.TID 0000.0001) >#   deltaTClock       - Timestep used as model "clock"           (s)
(PID.TID 0000.0001) >#   abEps             - Adams-Bashforth stabilising factor
(PID.TID 0000.0001) >#   pChkPtFreq        - Frequency of permanent check pointing    (s)
(PID.TID 0000.0001) >#   chkPtFreq         - Frequency of rolling check pointing      (s)
(PID.TID 0000.0001) >#   dumpFreq          - Frequency at which model state is stored (s)
(PID.TID 0000.0001) >#   tauThetaClimRelax - Relaxation to climatology time scale     (s)
(PID.TID 0000.0001) >#   tauSaltClimRelax  - Relaxation to climatology time scale     (s)
(PID.TID 0000.0001) >#
(PID.TID 0000.0001) > &PARM03
(PID.TID 0000.0001) >
(PID.TID 0000.0001) > startTime=0.0,
(PID.TID 0000.0001) > nTimeSteps= 10,
(PID.TID 0000.0001) ># nTimeSteps= 11000,
(PID.TID 0000.0001) >
(PID.TID 0000.0001) > deltaTtracer=3600.0,
(PID.TID 0000.0001) > deltaTClock =3600.0,
(PID.TID 0000.0001) >
(PID.TID 0000.0001) > cAdjFreq=0.,
(PID.TID 0000.0001) > abEps=0.1,
(PID.TID 0000.0001) > pChkptFreq=0.,
(PID.TID 0000.0001) > chkptFreq= 0.,
(PID.TID 0000.0001) > dumpFreq = 0.,
(PID.TID 0000.0001) > tavefreq = 0.,
(PID.TID 0000.0001) > monitorFreq=1.,
(PID.TID 0000.0001) > adjDumpFreq=1.,
(PID.TID 0000.0001) > adjMonitorFreq = 1.,
(PID.TID 0000.0001) >
(PID.TID 0000.0001) ># monitorFreq=86400.,
(PID.TID 0000.0001) ># adjDumpFreq=86400.,
(PID.TID 0000.0001) ># adjMonitorFreq = 86400.,
(PID.TID 0000.0001) > tracForcingOutAB=1,
(PID.TID 0000.0001) >
(PID.TID 0000.0001) > /
(PID.TID 0000.0001) >
(PID.TID 0000.0001) ># Gridding parameters
(PID.TID 0000.0001) >#
(PID.TID 0000.0001) >#   usingSphericalPolarGrid - On/Off flag for spherical polar coordinates
(PID.TID 0000.0001) >#   delX                    - Zonal grid spacing         (degrees)
(PID.TID 0000.0001) >#   delY                    - Meridional grid spacing    (degrees)
(PID.TID 0000.0001) >#   delZ                    - Vertical grid spacing      (m)
(PID.TID 0000.0001) >#   ygOrigin                - Southern boundary latitude (degrees)
(PID.TID 0000.0001) >#
(PID.TID 0000.0001) > &PARM04
(PID.TID 0000.0001) > usingCartesianGrid=.TRUE.,
(PID.TID 0000.0001) > dXspacing=5000.,
(PID.TID 0000.0001) > dYspacing=5000.,
(PID.TID 0000.0001) >
(PID.TID 0000.0001) ># usingSphericalPolarGrid=.TRUE.,
(PID.TID 0000.0001) ># delX=1*2.E0,
(PID.TID 0000.0001) ># delY=1*2.E0,
(PID.TID 0000.0001) >
(PID.TID 0000.0001) > delZ   = 10.00, 10.00, 10.00, 10.00, 10.00, 10.00, 10.00, 10.01,
(PID.TID 0000.0001) > 10.03, 10.11, 10.32, 10.80, 11.76, 13.42, 16.04 , 19.82, 24.85,
(PID.TID 0000.0001) > 31.10, 38.42, 46.50, 55.00, 63.50, 71.58,
(PID.TID 0000.0001) >
(PID.TID 0000.0001) ># ygOrigin=65.,
(PID.TID 0000.0001) ># xgOrigin=280.,
(PID.TID 0000.0001) ># rSphere = 6371.D3,
(PID.TID 0000.0001) > /
(PID.TID 0000.0001) >
(PID.TID 0000.0001) > &PARM05
(PID.TID 0000.0001) > bathyFile = 'bathy_1x1_1105m_testpool',
(PID.TID 0000.0001) > /
(PID.TID 0000.0001) >
(PID.TID 0000.0001) 
(PID.TID 0000.0001)  INI_PARMS ; starts to read PARM01
(PID.TID 0000.0001)  INI_PARMS ; read PARM01 : OK
(PID.TID 0000.0001)  INI_PARMS ; starts to read PARM02
(PID.TID 0000.0001)  INI_PARMS ; read PARM02 : OK
(PID.TID 0000.0001)  INI_PARMS ; starts to read PARM03
(PID.TID 0000.0001)  INI_PARMS ; read PARM03 : OK
(PID.TID 0000.0001)  INI_PARMS ; starts to read PARM04
(PID.TID 0000.0001)  INI_PARMS ; read PARM04 : OK
(PID.TID 0000.0001)  INI_PARMS ; starts to read PARM05
(PID.TID 0000.0001)  INI_PARMS ; read PARM05 : OK
(PID.TID 0000.0001)  INI_PARMS: finished reading file "data"
(PID.TID 0000.0001)  PACKAGES_BOOT: opening data.pkg
(PID.TID 0000.0001)  OPEN_COPY_DATA_FILE: opening file data.pkg
(PID.TID 0000.0001) // =======================================================
(PID.TID 0000.0001) // Parameter file "data.pkg"
(PID.TID 0000.0001) // =======================================================
(PID.TID 0000.0001) ># Packages
(PID.TID 0000.0001) > &PACKAGES
(PID.TID 0000.0001) >  useKPP    = .TRUE.,
(PID.TID 0000.0001) >  useEXF    = .TRUE.,
(PID.TID 0000.0001) >  useSEAICE = .TRUE.,
(PID.TID 0000.0001) >  useECCO   = .TRUE.,
(PID.TID 0000.0001) >  useGrdchk = .TRUE.,
(PID.TID 0000.0001) >
(PID.TID 0000.0001) >#  useMNC    = .TRUE,
(PID.TID 0000.0001) >#  useDiagnostics = .TRUE.,
(PID.TID 0000.0001) > /
(PID.TID 0000.0001) 
(PID.TID 0000.0001)  PACKAGES_BOOT: finished reading data.pkg
(PID.TID 0000.0001) CAL_READPARMS: opening data.cal
(PID.TID 0000.0001)  OPEN_COPY_DATA_FILE: opening file data.cal
(PID.TID 0000.0001) // =======================================================
(PID.TID 0000.0001) // Parameter file "data.cal"
(PID.TID 0000.0001) // =======================================================
(PID.TID 0000.0001) >#
(PID.TID 0000.0001) ># *******************
(PID.TID 0000.0001) ># Calendar Parameters
(PID.TID 0000.0001) ># *******************
(PID.TID 0000.0001) > &CAL_NML
(PID.TID 0000.0001) > TheCalendar='gregorian',
(PID.TID 0000.0001) ># TheCalendar='model',
(PID.TID 0000.0001) > startDate_1=19790101,
(PID.TID 0000.0001) > startDate_2=000000,
(PID.TID 0000.0001) > /
(PID.TID 0000.0001) 
(PID.TID 0000.0001) CAL_READPARMS: finished reading data.cal
(PID.TID 0000.0001) EXF_READPARMS: opening data.exf
(PID.TID 0000.0001)  OPEN_COPY_DATA_FILE: opening file data.exf
(PID.TID 0000.0001) // =======================================================
(PID.TID 0000.0001) // Parameter file "data.exf"
(PID.TID 0000.0001) // =======================================================
(PID.TID 0000.0001) >#
(PID.TID 0000.0001) ># *********************
(PID.TID 0000.0001) ># External Forcing Data
(PID.TID 0000.0001) ># *********************
(PID.TID 0000.0001) > &EXF_NML_01
(PID.TID 0000.0001) >#
(PID.TID 0000.0001) > useExfCheckRange  = .TRUE.,
(PID.TID 0000.0001) > repeatPeriod      = 31622400.0,
(PID.TID 0000.0001) > exf_iprec         = 32,
(PID.TID 0000.0001) >#
(PID.TID 0000.0001) > /
(PID.TID 0000.0001) >
(PID.TID 0000.0001) ># *********************
(PID.TID 0000.0001) > &EXF_NML_02
(PID.TID 0000.0001) >#
(PID.TID 0000.0001) > hfluxstartdate1   = 19781216,
(PID.TID 0000.0001) > hfluxstartdate2   = 180000,
(PID.TID 0000.0001) > hfluxperiod       = 2635200.0,
(PID.TID 0000.0001) >#
(PID.TID 0000.0001) > sfluxstartdate1   = 19781216,
(PID.TID 0000.0001) > sfluxstartdate2   = 180000,
(PID.TID 0000.0001) > sfluxperiod       = 2635200.0,
(PID.TID 0000.0001) >#
(PID.TID 0000.0001) > ustressstartdate1 = 19781216,
(PID.TID 0000.0001) > ustressstartdate2 = 180000,
(PID.TID 0000.0001) > ustressperiod     = 2635200.0,
(PID.TID 0000.0001) >#
(PID.TID 0000.0001) > vstressstartdate1 = 19781216,
(PID.TID 0000.0001) > vstressstartdate2 = 180000,
(PID.TID 0000.0001) > vstressperiod     = 2635200.0,
(PID.TID 0000.0001) >#
(PID.TID 0000.0001) > atempstartdate1   = 19781216,
(PID.TID 0000.0001) > atempstartdate2   = 180000,
(PID.TID 0000.0001) > atempperiod       = 2635200.0,
(PID.TID 0000.0001) > atempperiod       = 86400.0,
(PID.TID 0000.0001) >#
(PID.TID 0000.0001) > aqhstartdate1     = 19781216,
(PID.TID 0000.0001) > aqhstartdate2     = 180000,
(PID.TID 0000.0001) > aqhperiod         = 2635200.0,
(PID.TID 0000.0001) >#
(PID.TID 0000.0001) >#evapstartdate1    = 19781216,
(PID.TID 0000.0001) >#evapstartdate2    = 180000,
(PID.TID 0000.0001) >#evapperiod        = 2635200.0,
(PID.TID 0000.0001) >#
(PID.TID 0000.0001) > precipstartdate1  = 19781216,
(PID.TID 0000.0001) > precipstartdate2  = 180000,
(PID.TID 0000.0001) > precipperiod      = 2635200.0,
(PID.TID 0000.0001) >#
(PID.TID 0000.0001) > uwindstartdate1   = 19781216,
(PID.TID 0000.0001) > uwindstartdate2   = 180000,
(PID.TID 0000.0001) > uwindperiod       = 2635200.0,
(PID.TID 0000.0001) >#
(PID.TID 0000.0001) > vwindstartdate1   = 19781216,
(PID.TID 0000.0001) > vwindstartdate2   = 180000,
(PID.TID 0000.0001) > vwindperiod       = 2635200.0,
(PID.TID 0000.0001) >#
(PID.TID 0000.0001) > swfluxstartdate1  = 19781216,
(PID.TID 0000.0001) > swfluxstartdate2  = 180000,
(PID.TID 0000.0001) > swfluxperiod      = 2635200.0,
(PID.TID 0000.0001) >#
(PID.TID 0000.0001) > lwfluxstartdate1  = 19781216,
(PID.TID 0000.0001) > lwfluxstartdate2  = 180000,
(PID.TID 0000.0001) > lwfluxperiod      = 2635200.0,
(PID.TID 0000.0001) >#
(PID.TID 0000.0001) > swdownstartdate1  = 19781216,
(PID.TID 0000.0001) > swdownstartdate2  = 180000,
(PID.TID 0000.0001) > swdownperiod      = 2635200.0,
(PID.TID 0000.0001) > swdownperiod = 86400.0,
(PID.TID 0000.0001) >#
(PID.TID 0000.0001) > lwdownstartdate1  = 19781216,
(PID.TID 0000.0001) > lwdownstartdate2  = 180000,
(PID.TID 0000.0001) > lwdownperiod      = 2635200.0,
(PID.TID 0000.0001) > lwdownperiod = 86400.0,
(PID.TID 0000.0001) >#
(PID.TID 0000.0001) ># climsststartdate1  = 19781216,
(PID.TID 0000.0001) ># climsststartdate2  = 180000,
(PID.TID 0000.0001) ># climsstperiod      = 2635200.0,
(PID.TID 0000.0001) ># climsstTauRelax    = 0.0,
(PID.TID 0000.0001) >#
(PID.TID 0000.0001) ># climsssstartdate1  = 19781216,
(PID.TID 0000.0001) ># climsssstartdate2  = 180000,
(PID.TID 0000.0001) ># climsssperiod      = 2635200.0,
(PID.TID 0000.0001) ># climsssTauRelax    = 4142330.0,
(PID.TID 0000.0001) >#
(PID.TID 0000.0001) > hfluxfile         = ' ',
(PID.TID 0000.0001) > sfluxfile         = ' ',
(PID.TID 0000.0001) > ustressfile       = ' ',
(PID.TID 0000.0001) > vstressfile       = ' ',
(PID.TID 0000.0001) > atempfile         ='atemp_1x1_one_year',
(PID.TID 0000.0001) > lwdownfile        ='dlwrf_1x1_one_year',
(PID.TID 0000.0001) > swdownfile        ='dswrf_1x1_one_year',
(PID.TID 0000.0001) > uwindfile         ='u_1ms_1x1_one_year',
(PID.TID 0000.0001) > vwindfile         ='u_1ms_1x1_one_year',
(PID.TID 0000.0001) > lwfluxfile        = ' ',
(PID.TID 0000.0001) > swfluxfile        = ' ',
(PID.TID 0000.0001) > runoffFile        = ' '
(PID.TID 0000.0001) > /
(PID.TID 0000.0001) >
(PID.TID 0000.0001) ># *********************
(PID.TID 0000.0001) > &EXF_NML_03
(PID.TID 0000.0001) > /
(PID.TID 0000.0001) >
(PID.TID 0000.0001) ># *********************
(PID.TID 0000.0001) > &EXF_NML_04
(PID.TID 0000.0001) > /
(PID.TID 0000.0001) 
(PID.TID 0000.0001) EXF_READPARMS: reading EXF_NML_01
(PID.TID 0000.0001) EXF_READPARMS: reading EXF_NML_02
(PID.TID 0000.0001) EXF_READPARMS: reading EXF_NML_03
(PID.TID 0000.0001) EXF_READPARMS: finished reading data.exf
(PID.TID 0000.0001)  KPP_INIT: opening data.kpp
(PID.TID 0000.0001)  OPEN_COPY_DATA_FILE: opening file data.kpp
(PID.TID 0000.0001) // =======================================================
(PID.TID 0000.0001) // Parameter file "data.kpp"
(PID.TID 0000.0001) // =======================================================
(PID.TID 0000.0001) ># KPP parameters
(PID.TID 0000.0001) > &KPP_PARM01
(PID.TID 0000.0001) > KPPmixingMaps   = .FALSE.,
(PID.TID 0000.0001) > KPPwriteState   = .TRUE.,
(PID.TID 0000.0001) > KPP_ghatUseTotalDiffus=.TRUE.,
(PID.TID 0000.0001) > /
(PID.TID 0000.0001) 
(PID.TID 0000.0001)  KPP_INIT: finished reading data.kpp
(PID.TID 0000.0001) 
(PID.TID 0000.0001)  SEAICE_READPARMS: opening data.seaice
(PID.TID 0000.0001)  OPEN_COPY_DATA_FILE: opening file data.seaice
(PID.TID 0000.0001) // =======================================================
(PID.TID 0000.0001) // Parameter file "data.seaice"
(PID.TID 0000.0001) // =======================================================
(PID.TID 0000.0001) ># SEAICE parameters
(PID.TID 0000.0001) > &SEAICE_PARM01
(PID.TID 0000.0001) >      SEAICEwriteState   = .TRUE.,
(PID.TID 0000.0001) >#      SEAICE_initialHEFF = 1.1E-5,
(PID.TID 0000.0001) >      SEAICE_initialHEFF = 0.0,
(PID.TID 0000.0001) >      HsnowFile          = 'snow_0m_1x1',
(PID.TID 0000.0001) >      SEAICE_deltaTtherm = 3600.,
(PID.TID 0000.0001) >      SEAICE_deltaTdyn   = 3600.,
(PID.TID 0000.0001) >      SEAICEuseDYNAMICS  =.FALSE.,
(PID.TID 0000.0001) >      SEAICEadvSalt      =.FALSE.,
(PID.TID 0000.0001) >      LSR_ERROR          = 1.E-6,
(PID.TID 0000.0001) >      SEAICE_EPS         = 1.E-8,
(PID.TID 0000.0001) >      SEAICEadvSnow      = .TRUE.,
(PID.TID 0000.0001) >      SEAICE_mcPheePiston= 0.0008749999999999999,
(PID.TID 0000.0001) >      SEAICE_mcPheeTaper = 0.92,
(PID.TID 0000.0001) >      SEAICE_frazilFrac  = 0.,
(PID.TID 0000.0001) >      SEAICE_saltFrac    = 0.30,
(PID.TID 0000.0001) >      SEAICE_tempFrz0    = -1.96,
(PID.TID 0000.0001) >      SEAICE_dTempFrz_dS = 0.,
(PID.TID 0000.0001) >      SEAICEuseFlooding  = .TRUE.,
(PID.TID 0000.0001) >      SEAICE_area_reg    = 0.15,
(PID.TID 0000.0001) >      SEAICE_area_floor  = 1.E-5,
(PID.TID 0000.0001) >      SEAICE_hice_reg    = 0.10,
(PID.TID 0000.0001) >#      SEAICE_debugPointI = 3,
(PID.TID 0000.0001) >#      SEAICE_debugPointJ = 3,
(PID.TID 0000.0001) >      IMAX_TICE = 6,
(PID.TID 0000.0001) >#- to reproduce old results with former #undef SEAICE_SOLVE4TEMP_LEGACY code
(PID.TID 0000.0001) >  SEAICE_wetAlbTemp = 0.,
(PID.TID 0000.0001) >  SEAICE_snowThick  = 0.,
(PID.TID 0000.0001) >      SEAICE_mon_mnc = .TRUE.
(PID.TID 0000.0001) ># For backward compatibility only:
(PID.TID 0000.0001) ># emissivities should be inherited from exf and setting them here does
(PID.TID 0000.0001) ># not set a good example
(PID.TID 0000.0001) > SEAICE_snow_emiss     = 0.97001763668430343479,
(PID.TID 0000.0001) > SEAICE_ice_emiss      = 0.97001763668430343479,
(PID.TID 0000.0001) > /
(PID.TID 0000.0001) > &SEAICE_PARM02
(PID.TID 0000.0001) >  mult_ice   = 1.,
(PID.TID 0000.0001) ># choose which seaice cost term you want
(PID.TID 0000.0001) >  cost_ice_flag = 2,
(PID.TID 0000.0001) ># the following timings are obsolete;
(PID.TID 0000.0001) ># replaced by lastinterval
(PID.TID 0000.0001) > costIceStart1        = 20000101,
(PID.TID 0000.0001) > costIceStart2        = 00000,
(PID.TID 0000.0001) > costIceEnd1        = 20000201,
(PID.TID 0000.0001) > costIceEnd2        = 00000,
(PID.TID 0000.0001) > /
(PID.TID 0000.0001) 
(PID.TID 0000.0001)  SEAICE_READPARMS: finished reading data.seaice
(PID.TID 0000.0001) OPTIM_READPARMS: opening data.optim
(PID.TID 0000.0001)  OPEN_COPY_DATA_FILE: opening file data.optim
(PID.TID 0000.0001) // =======================================================
(PID.TID 0000.0001) // Parameter file "data.optim"
(PID.TID 0000.0001) // =======================================================
(PID.TID 0000.0001) >#
(PID.TID 0000.0001) ># ********************************
(PID.TID 0000.0001) ># Off-line optimization parameters
(PID.TID 0000.0001) ># ********************************
(PID.TID 0000.0001) > &OPTIM
(PID.TID 0000.0001) > optimcycle=0,
(PID.TID 0000.0001) > /
(PID.TID 0000.0001) 
(PID.TID 0000.0001) OPTIM_READPARMS: finished reading data.optim
(PID.TID 0000.0001) CTRL_READPARMS: opening data.ctrl
(PID.TID 0000.0001)  OPEN_COPY_DATA_FILE: opening file data.ctrl
(PID.TID 0000.0001) // =======================================================
(PID.TID 0000.0001) // Parameter file "data.ctrl"
(PID.TID 0000.0001) // =======================================================
(PID.TID 0000.0001) >#
(PID.TID 0000.0001) >#
(PID.TID 0000.0001) ># *********************
(PID.TID 0000.0001) ># ECCO controlvariables
(PID.TID 0000.0001) ># *********************
(PID.TID 0000.0001) > &CTRL_NML
(PID.TID 0000.0001) ># doSinglePrecTapelev=.TRUE.,
(PID.TID 0000.0001) > xx_theta_file      ='xx_theta',
(PID.TID 0000.0001) > xx_salt_file       ='xx_salt',
(PID.TID 0000.0001) > xx_siarea_file     ='xx_siarea',
(PID.TID 0000.0001) > xx_siheff_file     ='xx_siheff',
(PID.TID 0000.0001) > xx_sihsnow_file    ='xx_sihsnow',
(PID.TID 0000.0001) >#
(PID.TID 0000.0001) > xx_hfluxstartdate1 = 19790101,
(PID.TID 0000.0001) > xx_hfluxstartdate2 = 000000,
(PID.TID 0000.0001) > xx_hfluxperiod     = 864000.0,
(PID.TID 0000.0001) > xx_hflux_file      = 'xx_hfl',
(PID.TID 0000.0001) >#
(PID.TID 0000.0001) > xx_sfluxstartdate1 = 19790101,
(PID.TID 0000.0001) > xx_sfluxstartdate2 = 000000,
(PID.TID 0000.0001) > xx_sfluxperiod     = 864000.0,
(PID.TID 0000.0001) > xx_sflux_file      = 'xx_sfl',
(PID.TID 0000.0001) >#
(PID.TID 0000.0001) > xx_tauustartdate1 = 19790101,
(PID.TID 0000.0001) > xx_tauustartdate2 = 000000,
(PID.TID 0000.0001) > xx_tauuperiod     = 864000.0,
(PID.TID 0000.0001) > xx_tauu_file      = 'xx_tauu',
(PID.TID 0000.0001) >#
(PID.TID 0000.0001) > xx_tauvstartdate1 = 19790101,
(PID.TID 0000.0001) > xx_tauvstartdate2 = 000000,
(PID.TID 0000.0001) > xx_tauvperiod     = 864000.0,
(PID.TID 0000.0001) > xx_tauv_file      = 'xx_tauv',
(PID.TID 0000.0001) >#
(PID.TID 0000.0001) > xx_atempstartdate1 = 19790101,
(PID.TID 0000.0001) > xx_atempstartdate2 = 000000,
(PID.TID 0000.0001) > xx_atempperiod     = 864000.0,
(PID.TID 0000.0001) > xx_atemp_file      = 'xx_atemp',
(PID.TID 0000.0001) >#
(PID.TID 0000.0001) > xx_aqhstartdate1 = 19790101,
(PID.TID 0000.0001) > xx_aqhstartdate2 = 000000,
(PID.TID 0000.0001) > xx_aqhperiod     = 864000.0,
(PID.TID 0000.0001) > xx_aqh_file      = 'xx_aqh',
(PID.TID 0000.0001) >#
(PID.TID 0000.0001) > xx_precipstartdate1 = 19790101,
(PID.TID 0000.0001) > xx_precipstartdate2 = 000000,
(PID.TID 0000.0001) > xx_precipperiod     = 864000.0,
(PID.TID 0000.0001) > xx_precip_file      = 'xx_precip',
(PID.TID 0000.0001) >#
(PID.TID 0000.0001) > xx_swfluxstartdate1 = 19790101,
(PID.TID 0000.0001) > xx_swfluxstartdate2 = 000000,
(PID.TID 0000.0001) > xx_swfluxperiod     = 864000.0,
(PID.TID 0000.0001) > xx_swflux_file      = 'xx_swflux',
(PID.TID 0000.0001) >#
(PID.TID 0000.0001) > xx_swdownstartdate1 = 19790101,
(PID.TID 0000.0001) > xx_swdownstartdate2 = 000000,
(PID.TID 0000.0001) > xx_swdownperiod     = 864000.0,
(PID.TID 0000.0001) > xx_swdown_file      = 'xx_swdown',
(PID.TID 0000.0001) >#
(PID.TID 0000.0001) > xx_lwfluxstartdate1 = 19790101,
(PID.TID 0000.0001) > xx_lwfluxstartdate2 = 000000,
(PID.TID 0000.0001) > xx_lwfluxperiod     = 864000.0,
(PID.TID 0000.0001) > xx_lwflux_file      = 'xx_lwflux',
(PID.TID 0000.0001) >#
(PID.TID 0000.0001) > xx_lwdownstartdate1 = 19790101,
(PID.TID 0000.0001) > xx_lwdownstartdate2 = 000000,
(PID.TID 0000.0001) > xx_lwdownperiod     = 864000.0,
(PID.TID 0000.0001) > xx_lwdown_file      = 'xx_lwdown',
(PID.TID 0000.0001) >#
(PID.TID 0000.0001) > xx_evapstartdate1 = 19790101,
(PID.TID 0000.0001) > xx_evapstartdate2 = 000000,
(PID.TID 0000.0001) > xx_evapperiod     = 864000.0,
(PID.TID 0000.0001) > xx_evap_file      = 'xx_evap',
(PID.TID 0000.0001) >#
(PID.TID 0000.0001) > xx_snowprecipstartdate1 = 19790101,
(PID.TID 0000.0001) > xx_snowprecipstartdate2 = 000000,
(PID.TID 0000.0001) > xx_snowprecipperiod     = 864000.0,
(PID.TID 0000.0001) > xx_snowprecip_file      = 'xx_snowprecip',
(PID.TID 0000.0001) >#
(PID.TID 0000.0001) > xx_apressurestartdate1 = 19790101,
(PID.TID 0000.0001) > xx_apressurestartdate2 = 000000,
(PID.TID 0000.0001) > xx_apressureperiod     = 864000.0,
(PID.TID 0000.0001) > xx_apressure_file      = 'xx_apressure',
(PID.TID 0000.0001) >#
(PID.TID 0000.0001) > xx_uwindstartdate1 = 19790101,
(PID.TID 0000.0001) > xx_uwindstartdate2 = 000000,
(PID.TID 0000.0001) > xx_uwindperiod     = 864000.0,
(PID.TID 0000.0001) > xx_uwind_file      = 'xx_uwind',
(PID.TID 0000.0001) >#
(PID.TID 0000.0001) > xx_vwindstartdate1 = 19790101,
(PID.TID 0000.0001) > xx_vwindstartdate2 = 000000,
(PID.TID 0000.0001) > xx_vwindperiod     = 864000.0,
(PID.TID 0000.0001) > xx_vwind_file      = 'xx_vwind',
(PID.TID 0000.0001) > /
(PID.TID 0000.0001) >#
(PID.TID 0000.0001) ># *********************
(PID.TID 0000.0001) ># names for ctrl_pack/unpack
(PID.TID 0000.0001) ># *********************
(PID.TID 0000.0001) > &CTRL_PACKNAMES
(PID.TID 0000.0001) > /
(PID.TID 0000.0001) 
(PID.TID 0000.0001) CTRL_READPARMS: finished reading data.ctrl
(PID.TID 0000.0001) COST_READPARMS: opening data.cost
(PID.TID 0000.0001)  OPEN_COPY_DATA_FILE: opening file data.cost
(PID.TID 0000.0001) // =======================================================
(PID.TID 0000.0001) // Parameter file "data.cost"
(PID.TID 0000.0001) // =======================================================
(PID.TID 0000.0001) >#
(PID.TID 0000.0001) >#
(PID.TID 0000.0001) ># ******************
(PID.TID 0000.0001) ># cost function
(PID.TID 0000.0001) ># ******************
(PID.TID 0000.0001) > &COST_NML
(PID.TID 0000.0001) > /
(PID.TID 0000.0001) 
(PID.TID 0000.0001) COST_READPARMS: finished reading data.cost
(PID.TID 0000.0001) GRDCHK_READPARMS: opening data.grdchk
(PID.TID 0000.0001)  OPEN_COPY_DATA_FILE: opening file data.grdchk
(PID.TID 0000.0001) // =======================================================
(PID.TID 0000.0001) // Parameter file "data.grdchk"
(PID.TID 0000.0001) // =======================================================
(PID.TID 0000.0001) >
(PID.TID 0000.0001) ># *******************
(PID.TID 0000.0001) ># ECCO gradient check
(PID.TID 0000.0001) ># *******************
(PID.TID 0000.0001) > &GRDCHK_NML
(PID.TID 0000.0001) > grdchk_eps       = 1.d-7,
(PID.TID 0000.0001) ># nbeg             = 4,
(PID.TID 0000.0001) > iGloPos          = 1,
(PID.TID 0000.0001) > jGloPos          = 1,
(PID.TID 0000.0001) > kGloPos          = 1,
(PID.TID 0000.0001) > nstep            = 1,
(PID.TID 0000.0001) >#nend             = 6,
(PID.TID 0000.0001) > nend             = 3,
(PID.TID 0000.0001) > grdchkvarindex   = 1,
(PID.TID 0000.0001) > /
(PID.TID 0000.0001) 
(PID.TID 0000.0001) GRDCHK_READPARMS: finished reading data.grdchk
(PID.TID 0000.0001) 
(PID.TID 0000.0001) // =======================================================
(PID.TID 0000.0001) // Gradient check configuration  >>> START <<<
(PID.TID 0000.0001) // =======================================================
(PID.TID 0000.0001) 
(PID.TID 0000.0001)   eps:                              0.100E-06
(PID.TID 0000.0001)   First location:                           0
(PID.TID 0000.0001)   Last location:                            3
(PID.TID 0000.0001)   Increment:                                1
(PID.TID 0000.0001)   grdchkWhichProc:                          0
(PID.TID 0000.0001)   iLocTile =       1  ,    jLocTile =       1
(PID.TID 0000.0001) 
(PID.TID 0000.0001) // =======================================================
(PID.TID 0000.0001) // Gradient check configuration  >>> END <<<
(PID.TID 0000.0001) // =======================================================
(PID.TID 0000.0001) 
(PID.TID 0000.0001) ECCO_READPARMS: opening data.ecco
(PID.TID 0000.0001)  OPEN_COPY_DATA_FILE: opening file data.ecco
(PID.TID 0000.0001) // =======================================================
(PID.TID 0000.0001) // Parameter file "data.ecco"
(PID.TID 0000.0001) // =======================================================
(PID.TID 0000.0001) >#
(PID.TID 0000.0001) >#
(PID.TID 0000.0001) ># ******************
(PID.TID 0000.0001) ># ECCO cost function
(PID.TID 0000.0001) ># ******************
(PID.TID 0000.0001) > &ECCO_COST_NML
(PID.TID 0000.0001) > data_errfile ='data.err',
(PID.TID 0000.0001) > topexstartdate1 = 19790101,
(PID.TID 0000.0001) > topexstartdate2 = 00000,
(PID.TID 0000.0001) > topexperiod     = 2635200.0,
(PID.TID 0000.0001) > ersstartdate1 = 19790101,
(PID.TID 0000.0001) > ersstartdate2 = 00000,
(PID.TID 0000.0001) > ersperiod     = 2635200.0,
(PID.TID 0000.0001) >#
(PID.TID 0000.0001) > sststartdate1        = 19790101,
(PID.TID 0000.0001) > sststartdate2        = 00000,
(PID.TID 0000.0001) >
(PID.TID 0000.0001) > tdatfile = 't_ref_1x1x23x13',
(PID.TID 0000.0001) > sdatfile = 's_ref_1x1x23x13',
(PID.TID 0000.0001) > geoid_covariancefile = ' ',
(PID.TID 0000.0001) >#
(PID.TID 0000.0001) > hflux_errfile        = ' ',
(PID.TID 0000.0001) > sflux_errfile        = ' ',
(PID.TID 0000.0001) > tauu_errfile         = ' ',
(PID.TID 0000.0001) > tauv_errfile         = ' ',
(PID.TID 0000.0001) > atemp_errfile        = ' ',
(PID.TID 0000.0001) > aqh_errfile          = ' ',
(PID.TID 0000.0001) > precip_errfile       = ' ',
(PID.TID 0000.0001) > swflux_errfile       = ' ',
(PID.TID 0000.0001) > swdown_errfile       = ' ',
(PID.TID 0000.0001) > uwind_errfile        = ' ',
(PID.TID 0000.0001) > vwind_errfile        = ' ',
(PID.TID 0000.0001) >#
(PID.TID 0000.0001) > whflux0              = 20.,
(PID.TID 0000.0001) > wsflux0              = 3.0E-8,
(PID.TID 0000.0001) > wtau0                = 2.0E-2,
(PID.TID 0000.0001) > watemp0              = 0.5,
(PID.TID 0000.0001) > waqh0                = 5.E-4,
(PID.TID 0000.0001) > wprecip0             = 1.E-8,
(PID.TID 0000.0001) > wswflux0             = 20.,
(PID.TID 0000.0001) > wswdown0             = 20.,
(PID.TID 0000.0001) > wlwflux0             = 20.,
(PID.TID 0000.0001) > wlwdown0             = 20.,
(PID.TID 0000.0001) > wwind0               = 1.0,
(PID.TID 0000.0001) > wevap0               = 1.0,
(PID.TID 0000.0001) > wsnowprecip0         = 1.0,
(PID.TID 0000.0001) > wapressure0          = 1.0,
(PID.TID 0000.0001) >#
(PID.TID 0000.0001) > wmean_hflux          = 30.,
(PID.TID 0000.0001) > wmean_sflux          = 1.6E-8,
(PID.TID 0000.0001) > wmean_tau            = 0.1,
(PID.TID 0000.0001) > wmean_atemp          = 1.,
(PID.TID 0000.0001) > wmean_aqh            = 1.E-3,
(PID.TID 0000.0001) > wmean_precip         = 1.5E-8,
(PID.TID 0000.0001) > wmean_swflux         = 20.,
(PID.TID 0000.0001) > wmean_swdown         = 20.,
(PID.TID 0000.0001) > wmean_lwdown         = 20.,
(PID.TID 0000.0001) > wmean_lwflux         = 20.,
(PID.TID 0000.0001) > wmean_wind           = 2.0,
(PID.TID 0000.0001) > wmean_evap           = 1.0,
(PID.TID 0000.0001) > wmean_snowprecip     = 1.0,
(PID.TID 0000.0001) > wmean_apressure      = 1.0,
(PID.TID 0000.0001) >
(PID.TID 0000.0001) > mult_hmean = 0.,
(PID.TID 0000.0001) > mult_h     = 0.,
(PID.TID 0000.0001) > mult_temp  = 0.,
(PID.TID 0000.0001) > mult_salt  = 0.,
(PID.TID 0000.0001) > mult_sst   = 0.,
(PID.TID 0000.0001) > mult_hflux = 0.,
(PID.TID 0000.0001) > mult_sflux = 0.,
(PID.TID 0000.0001) > mult_tauu  = 0.,
(PID.TID 0000.0001) > mult_tauv  = 0.,
(PID.TID 0000.0001) > mult_atemp = 0.,
(PID.TID 0000.0001) > mult_aqh   = 0.,
(PID.TID 0000.0001) > mult_precip= 0.,
(PID.TID 0000.0001) > mult_swflux= 0.,
(PID.TID 0000.0001) > mult_swdown= 0.,
(PID.TID 0000.0001) > mult_uwind = 0.,
(PID.TID 0000.0001) > mult_vwind = 0.,
(PID.TID 0000.0001) >#
(PID.TID 0000.0001) > cost_iprec  = 32,
(PID.TID 0000.0001) > cost_yftype = 'RL',
(PID.TID 0000.0001) > /
(PID.TID 0000.0001) 
(PID.TID 0000.0001) ECCO_READPARMS: finished reading #1: ecco_cost_nml
(PID.TID 0000.0001) ECCO_READPARMS: done
(PID.TID 0000.0001) SET_PARMS: done
(PID.TID 0000.0001) Enter INI_VERTICAL_GRID: setInterFDr=    T ; setCenterDr=    F
(PID.TID 0000.0001) %MON XC_max                       =   2.5000000000000E+03
(PID.TID 0000.0001) %MON XC_min                       =   2.5000000000000E+03
(PID.TID 0000.0001) %MON XC_mean                      =   2.5000000000000E+03
(PID.TID 0000.0001) %MON XC_sd                        =   0.0000000000000E+00
(PID.TID 0000.0001) %MON XG_max                       =   0.0000000000000E+00
(PID.TID 0000.0001) %MON XG_min                       =   0.0000000000000E+00
(PID.TID 0000.0001) %MON XG_mean                      =   0.0000000000000E+00
(PID.TID 0000.0001) %MON XG_sd                        =   0.0000000000000E+00
(PID.TID 0000.0001) %MON DXC_max                      =   5.0000000000000E+03
(PID.TID 0000.0001) %MON DXC_min                      =   5.0000000000000E+03
(PID.TID 0000.0001) %MON DXC_mean                     =   5.0000000000000E+03
(PID.TID 0000.0001) %MON DXC_sd                       =   0.0000000000000E+00
(PID.TID 0000.0001) %MON DXF_max                      =   5.0000000000000E+03
(PID.TID 0000.0001) %MON DXF_min                      =   5.0000000000000E+03
(PID.TID 0000.0001) %MON DXF_mean                     =   5.0000000000000E+03
(PID.TID 0000.0001) %MON DXF_sd                       =   0.0000000000000E+00
(PID.TID 0000.0001) %MON DXG_max                      =   5.0000000000000E+03
(PID.TID 0000.0001) %MON DXG_min                      =   5.0000000000000E+03
(PID.TID 0000.0001) %MON DXG_mean                     =   5.0000000000000E+03
(PID.TID 0000.0001) %MON DXG_sd                       =   0.0000000000000E+00
(PID.TID 0000.0001) %MON DXV_max                      =   5.0000000000000E+03
(PID.TID 0000.0001) %MON DXV_min                      =   5.0000000000000E+03
(PID.TID 0000.0001) %MON DXV_mean                     =   5.0000000000000E+03
(PID.TID 0000.0001) %MON DXV_sd                       =   0.0000000000000E+00
(PID.TID 0000.0001) %MON YC_max                       =   2.5000000000000E+03
(PID.TID 0000.0001) %MON YC_min                       =   2.5000000000000E+03
(PID.TID 0000.0001) %MON YC_mean                      =   2.5000000000000E+03
(PID.TID 0000.0001) %MON YC_sd                        =   0.0000000000000E+00
(PID.TID 0000.0001) %MON YG_max                       =   0.0000000000000E+00
(PID.TID 0000.0001) %MON YG_min                       =   0.0000000000000E+00
(PID.TID 0000.0001) %MON YG_mean                      =   0.0000000000000E+00
(PID.TID 0000.0001) %MON YG_sd                        =   0.0000000000000E+00
(PID.TID 0000.0001) %MON DYC_max                      =   5.0000000000000E+03
(PID.TID 0000.0001) %MON DYC_min                      =   5.0000000000000E+03
(PID.TID 0000.0001) %MON DYC_mean                     =   5.0000000000000E+03
(PID.TID 0000.0001) %MON DYC_sd                       =   0.0000000000000E+00
(PID.TID 0000.0001) %MON DYF_max                      =   5.0000000000000E+03
(PID.TID 0000.0001) %MON DYF_min                      =   5.0000000000000E+03
(PID.TID 0000.0001) %MON DYF_mean                     =   5.0000000000000E+03
(PID.TID 0000.0001) %MON DYF_sd                       =   0.0000000000000E+00
(PID.TID 0000.0001) %MON DYG_max                      =   5.0000000000000E+03
(PID.TID 0000.0001) %MON DYG_min                      =   5.0000000000000E+03
(PID.TID 0000.0001) %MON DYG_mean                     =   5.0000000000000E+03
(PID.TID 0000.0001) %MON DYG_sd                       =   0.0000000000000E+00
(PID.TID 0000.0001) %MON DYU_max                      =   5.0000000000000E+03
(PID.TID 0000.0001) %MON DYU_min                      =   5.0000000000000E+03
(PID.TID 0000.0001) %MON DYU_mean                     =   5.0000000000000E+03
(PID.TID 0000.0001) %MON DYU_sd                       =   0.0000000000000E+00
(PID.TID 0000.0001) %MON RA_max                       =   2.5000000000000E+07
(PID.TID 0000.0001) %MON RA_min                       =   2.5000000000000E+07
(PID.TID 0000.0001) %MON RA_mean                      =   2.5000000000000E+07
(PID.TID 0000.0001) %MON RA_sd                        =   0.0000000000000E+00
(PID.TID 0000.0001) %MON RAW_max                      =   2.5000000000000E+07
(PID.TID 0000.0001) %MON RAW_min                      =   2.5000000000000E+07
(PID.TID 0000.0001) %MON RAW_mean                     =   2.5000000000000E+07
(PID.TID 0000.0001) %MON RAW_sd                       =   0.0000000000000E+00
(PID.TID 0000.0001) %MON RAS_max                      =   2.5000000000000E+07
(PID.TID 0000.0001) %MON RAS_min                      =   2.5000000000000E+07
(PID.TID 0000.0001) %MON RAS_mean                     =   2.5000000000000E+07
(PID.TID 0000.0001) %MON RAS_sd                       =   0.0000000000000E+00
(PID.TID 0000.0001) %MON RAZ_max                      =   2.5000000000000E+07
(PID.TID 0000.0001) %MON RAZ_min                      =   2.5000000000000E+07
(PID.TID 0000.0001) %MON RAZ_mean                     =   2.5000000000000E+07
(PID.TID 0000.0001) %MON RAZ_sd                       =   0.0000000000000E+00
(PID.TID 0000.0001) %MON AngleCS_max                  =   1.0000000000000E+00
(PID.TID 0000.0001) %MON AngleCS_min                  =   1.0000000000000E+00
(PID.TID 0000.0001) %MON AngleCS_mean                 =   1.0000000000000E+00
(PID.TID 0000.0001) %MON AngleCS_sd                   =   0.0000000000000E+00
(PID.TID 0000.0001) %MON AngleSN_max                  =   0.0000000000000E+00
(PID.TID 0000.0001) %MON AngleSN_min                  =   0.0000000000000E+00
(PID.TID 0000.0001) %MON AngleSN_mean                 =   0.0000000000000E+00
(PID.TID 0000.0001) %MON AngleSN_sd                   =   0.0000000000000E+00
(PID.TID 0000.0001) 
(PID.TID 0000.0001) // =======================================================
(PID.TID 0000.0001) // Calendar configuration >>> START <<<
(PID.TID 0000.0001) // =======================================================
(PID.TID 0000.0001) 
(PID.TID 0000.0001) modelstart = /* Start time of the model integration [s] */
(PID.TID 0000.0001)                 0.000000000000000E+00
(PID.TID 0000.0001)     ;
(PID.TID 0000.0001) modelend  = /* End time of the model integration [s] */
(PID.TID 0000.0001)                 3.600000000000000E+04
(PID.TID 0000.0001)     ;
(PID.TID 0000.0001) modelstep = /* Time interval for a model forward step [s] */
(PID.TID 0000.0001)                 3.600000000000000E+03
(PID.TID 0000.0001)     ;
(PID.TID 0000.0001) usingGregorianCalendar= /* Calendar Type: Gregorian Calendar */
(PID.TID 0000.0001)                   T
(PID.TID 0000.0001)     ;
(PID.TID 0000.0001) usingJulianCalendar = /* Calendar Type: Julian Calendar */
(PID.TID 0000.0001)                   F
(PID.TID 0000.0001)     ;
(PID.TID 0000.0001) usingModelCalendar  = /* Calendar Type: Model Calendar */
(PID.TID 0000.0001)                   F
(PID.TID 0000.0001)     ;
(PID.TID 0000.0001) modelstartdate YYYYMMDD = /* Model start date YYYY-MM-DD */
(PID.TID 0000.0001)                19790101
(PID.TID 0000.0001)     ;
(PID.TID 0000.0001)   modelstartdate HHMMSS = /* Model start date HH-MM-SS  */
(PID.TID 0000.0001)                       0
(PID.TID 0000.0001)     ;
(PID.TID 0000.0001) modelenddate   YYYYMMDD = /* Model end date YYYY-MM-DD */
(PID.TID 0000.0001)                19790101
(PID.TID 0000.0001)     ;
(PID.TID 0000.0001)   modelenddate   HHMMSS = /* Model end date HH-MM-SS  */
(PID.TID 0000.0001)                  100000
(PID.TID 0000.0001)     ;
(PID.TID 0000.0001) intyears = /* Number of calendar years affected by the integration */
(PID.TID 0000.0001)                       1
(PID.TID 0000.0001)     ;
(PID.TID 0000.0001) intmonths= /* Number of calendar months affected by the integration */
(PID.TID 0000.0001)                       1
(PID.TID 0000.0001)     ;
(PID.TID 0000.0001) intdays = /* Number of calendar days affected by the integration */
(PID.TID 0000.0001)                       1
(PID.TID 0000.0001)     ;
(PID.TID 0000.0001) modeliter0 = /* Base timestep number  */
(PID.TID 0000.0001)                       0
(PID.TID 0000.0001)     ;
(PID.TID 0000.0001) modeliterend = /* Final timestep number  */
(PID.TID 0000.0001)                      10
(PID.TID 0000.0001)     ;
(PID.TID 0000.0001) modelintsteps= /* Number of model timesteps  */
(PID.TID 0000.0001)                      10
(PID.TID 0000.0001)     ;
(PID.TID 0000.0001) 
(PID.TID 0000.0001) // =======================================================
(PID.TID 0000.0001) // Calendar configuration  >>> END <<<
(PID.TID 0000.0001) // =======================================================
(PID.TID 0000.0001) 
(PID.TID 0000.0001) GAD_INIT_FIXED: GAD_OlMinSize=  2  0  1
(PID.TID 0000.0001) 
(PID.TID 0000.0001) // ===================================
(PID.TID 0000.0001) // GAD parameters :
(PID.TID 0000.0001) // ===================================
(PID.TID 0000.0001) tempAdvScheme =   /* Temp. Horiz.Advection scheme selector */
(PID.TID 0000.0001)                      30
(PID.TID 0000.0001)     ;
(PID.TID 0000.0001) tempVertAdvScheme =   /* Temp. Vert. Advection scheme selector */
(PID.TID 0000.0001)                      30
(PID.TID 0000.0001)     ;
(PID.TID 0000.0001) tempMultiDimAdvec =   /* use Muti-Dim Advec method for Temp */
(PID.TID 0000.0001)                   F
(PID.TID 0000.0001)     ;
(PID.TID 0000.0001) tempSOM_Advection = /* use 2nd Order Moment Advection for Temp */
(PID.TID 0000.0001)                   F
(PID.TID 0000.0001)     ;
(PID.TID 0000.0001) AdamsBashforthGt = /* apply Adams-Bashforth extrapolation on Gt */
(PID.TID 0000.0001)                   F
(PID.TID 0000.0001)     ;
(PID.TID 0000.0001) AdamsBashforth_T = /* apply Adams-Bashforth extrapolation on Temp */
(PID.TID 0000.0001)                   F
(PID.TID 0000.0001)     ;
(PID.TID 0000.0001) saltAdvScheme =   /* Salt. Horiz.advection scheme selector */
(PID.TID 0000.0001)                      30
(PID.TID 0000.0001)     ;
(PID.TID 0000.0001) saltVertAdvScheme =   /* Salt. Vert. Advection scheme selector */
(PID.TID 0000.0001)                      30
(PID.TID 0000.0001)     ;
(PID.TID 0000.0001) saltMultiDimAdvec =   /* use Muti-Dim Advec method for Salt */
(PID.TID 0000.0001)                   F
(PID.TID 0000.0001)     ;
(PID.TID 0000.0001) saltSOM_Advection = /* use 2nd Order Moment Advection for Salt */
(PID.TID 0000.0001)                   F
(PID.TID 0000.0001)     ;
(PID.TID 0000.0001) AdamsBashforthGs = /* apply Adams-Bashforth extrapolation on Gs */
(PID.TID 0000.0001)                   F
(PID.TID 0000.0001)     ;
(PID.TID 0000.0001) AdamsBashforth_S = /* apply Adams-Bashforth extrapolation on Salt */
(PID.TID 0000.0001)                   F
(PID.TID 0000.0001)     ;
(PID.TID 0000.0001) // ===================================
(PID.TID 0000.0001) 
(PID.TID 0000.0001) // =======================================================
(PID.TID 0000.0001) // External forcing (EXF) configuration >>> START <<<
(PID.TID 0000.0001) // =======================================================
(PID.TID 0000.0001) 
(PID.TID 0000.0001)  EXF general parameters:
(PID.TID 0000.0001) 
(PID.TID 0000.0001) exf_iprec = /* exf file precision */
(PID.TID 0000.0001)                      32
(PID.TID 0000.0001)     ;
(PID.TID 0000.0001) useExfYearlyFields = /* add extension _YEAR to input file names */
(PID.TID 0000.0001)                   F
(PID.TID 0000.0001)     ;
(PID.TID 0000.0001) twoDigitYear = /* use 2-digit year extension */
(PID.TID 0000.0001)                   F
(PID.TID 0000.0001)     ;
(PID.TID 0000.0001) exf_verbose = /* print more messages to STDOUT */
(PID.TID 0000.0001)                   F
(PID.TID 0000.0001)     ;
(PID.TID 0000.0001) useExfCheckRange = /* check for fields range */
(PID.TID 0000.0001)                   T
(PID.TID 0000.0001)     ;
(PID.TID 0000.0001) exf_monFreq = /* EXF monitor frequency [ s ] */
(PID.TID 0000.0001)                 1.000000000000000E+00
(PID.TID 0000.0001)     ;
(PID.TID 0000.0001) repeatPeriod = /* period for cycling forcing dataset [ s ] */
(PID.TID 0000.0001)                 3.162240000000000E+07
(PID.TID 0000.0001)     ;
(PID.TID 0000.0001) climTempFreeze= /* Minimum climatological temperature [deg.C] */
(PID.TID 0000.0001)                -1.900000000000000E+00
(PID.TID 0000.0001)     ;
(PID.TID 0000.0001) windStressMax = /* Maximum absolute windstress [ Pa ] */
(PID.TID 0000.0001)                 2.000000000000000E+00
(PID.TID 0000.0001)     ;
(PID.TID 0000.0001) stressIsOnCgrid = /* set u,v_stress on Arakawa C-grid */
(PID.TID 0000.0001)                   F
(PID.TID 0000.0001)     ;
(PID.TID 0000.0001) cen2kel = /* conversion of deg. Centigrade to Kelvin [K] */
(PID.TID 0000.0001)                 2.731500000000000E+02
(PID.TID 0000.0001)     ;
(PID.TID 0000.0001) gravity_mks= /* gravitational acceleration [m/s^2] */
(PID.TID 0000.0001)                 9.810000000000000E+00
(PID.TID 0000.0001)     ;
(PID.TID 0000.0001) atmrho =  /* mean atmospheric density [kg/m^3] */
(PID.TID 0000.0001)                 1.200000000000000E+00
(PID.TID 0000.0001)     ;
(PID.TID 0000.0001) atmcp =  /* mean atmospheric specific heat [J/kg/K] */
(PID.TID 0000.0001)                 1.005000000000000E+03
(PID.TID 0000.0001)     ;
(PID.TID 0000.0001) flamb =  /* latent heat of evaporation [J/kg] */
(PID.TID 0000.0001)                 2.500000000000000E+06
(PID.TID 0000.0001)     ;
(PID.TID 0000.0001) flami =  /* latent heat of pure-ice melting [J/kg] */
(PID.TID 0000.0001)                 3.340000000000000E+05
(PID.TID 0000.0001)     ;
(PID.TID 0000.0001) cvapor_fac = /* const. for Saturation calculation [?] */
(PID.TID 0000.0001)                 6.403800000000000E+05
(PID.TID 0000.0001)     ;
(PID.TID 0000.0001) cvapor_exp = /* const. for Saturation calculation [?] */
(PID.TID 0000.0001)                 5.107400000000000E+03
(PID.TID 0000.0001)     ;
(PID.TID 0000.0001) cvapor_fac_ice= /* const. for Saturation calculation [?] */
(PID.TID 0000.0001)                 1.163780000000000E+07
(PID.TID 0000.0001)     ;
(PID.TID 0000.0001) cvapor_exp_ice= /* const. for Saturation calculation [?] */
(PID.TID 0000.0001)                 5.897800000000000E+03
(PID.TID 0000.0001)     ;
(PID.TID 0000.0001) humid_fac = /* humidity coef. in virtual temp. [(kg/kg)^-1] */
(PID.TID 0000.0001)                 6.060000000000000E-01
(PID.TID 0000.0001)     ;
(PID.TID 0000.0001) gamma_blk = /* adiabatic lapse rate [?] */
(PID.TID 0000.0001)                 1.000000000000000E-02
(PID.TID 0000.0001)     ;
(PID.TID 0000.0001) saltsat = /* reduction of Qsat over salty water [-] */
(PID.TID 0000.0001)                 9.800000000000000E-01
(PID.TID 0000.0001)     ;
(PID.TID 0000.0001) noNegativeEvap = /* prevent negative Evaporation */
(PID.TID 0000.0001)                   F
(PID.TID 0000.0001)     ;
(PID.TID 0000.0001) sstExtrapol = /* extrapolation coeff from lev. 1 & 2 to surf [-] */
(PID.TID 0000.0001)                 0.000000000000000E+00
(PID.TID 0000.0001)     ;
(PID.TID 0000.0001) cDrag_1 = /* coef used in drag calculation [?] */
(PID.TID 0000.0001)                 2.700000000000000E-03
(PID.TID 0000.0001)     ;
(PID.TID 0000.0001) cDrag_2 = /* coef used in drag calculation [?] */
(PID.TID 0000.0001)                 1.420000000000000E-04
(PID.TID 0000.0001)     ;
(PID.TID 0000.0001) cDrag_3 = /* coef used in drag calculation [?] */
(PID.TID 0000.0001)                 7.640000000000000E-05
(PID.TID 0000.0001)     ;
(PID.TID 0000.0001) cStanton_1 = /* coef used in Stanton number calculation [?] */
(PID.TID 0000.0001)                 3.270000000000000E-02
(PID.TID 0000.0001)     ;
(PID.TID 0000.0001) cStanton_2 = /* coef used in Stanton number calculation [?] */
(PID.TID 0000.0001)                 1.800000000000000E-02
(PID.TID 0000.0001)     ;
(PID.TID 0000.0001) cDalton = /* coef used in Dalton number calculation [?] */
(PID.TID 0000.0001)                 3.460000000000000E-02
(PID.TID 0000.0001)     ;
(PID.TID 0000.0001) exf_scal_BulkCdn= /* Drag coefficient scaling factor [-] */
(PID.TID 0000.0001)                 1.000000000000000E+00
(PID.TID 0000.0001)     ;
(PID.TID 0000.0001) zolmin = /* minimum stability parameter [?] */
(PID.TID 0000.0001)                -1.000000000000000E+02
(PID.TID 0000.0001)     ;
(PID.TID 0000.0001) psim_fac = /* coef used in turbulent fluxes calculation [-] */
(PID.TID 0000.0001)                 5.000000000000000E+00
(PID.TID 0000.0001)     ;
(PID.TID 0000.0001) zref =  /* reference height [ m ] */
(PID.TID 0000.0001)                 1.000000000000000E+01
(PID.TID 0000.0001)     ;
(PID.TID 0000.0001) hu =  /* height of mean wind [ m ] */
(PID.TID 0000.0001)                 1.000000000000000E+01
(PID.TID 0000.0001)     ;
(PID.TID 0000.0001) ht =  /* height of mean temperature [ m ] */
(PID.TID 0000.0001)                 2.000000000000000E+00
(PID.TID 0000.0001)     ;
(PID.TID 0000.0001) hq =  /* height of mean spec.humidity [ m ] */
(PID.TID 0000.0001)                 2.000000000000000E+00
(PID.TID 0000.0001)     ;
(PID.TID 0000.0001) uMin = /* minimum wind speed [m/s] */
(PID.TID 0000.0001)                 5.000000000000000E-01
(PID.TID 0000.0001)     ;
(PID.TID 0000.0001) useStabilityFct_overIce= /* transfert Coeffs over sea-ice depend on stability */
(PID.TID 0000.0001)                   F
(PID.TID 0000.0001)     ;
(PID.TID 0000.0001) exf_iceCd = /* drag coefficient over sea-ice (fixed) [-] */
(PID.TID 0000.0001)                 1.630000000000000E-03
(PID.TID 0000.0001)     ;
(PID.TID 0000.0001) exf_iceCe = /* transfert coeff. over sea-ice, for Evap (fixed) [-] */
(PID.TID 0000.0001)                 1.630000000000000E-03
(PID.TID 0000.0001)     ;
(PID.TID 0000.0001) exf_iceCh = /* transfert coeff. over sea-ice, Sens.Heat.(fixed)[-] */
(PID.TID 0000.0001)                 1.630000000000000E-03
(PID.TID 0000.0001)     ;
(PID.TID 0000.0001) exf_albedo =  /* Sea-water albedo [-] */
(PID.TID 0000.0001)                 1.000000000000000E-01
(PID.TID 0000.0001)     ;
(PID.TID 0000.0001) useExfZenAlbedo = /* Sea-water albedo varies with zenith angle */
(PID.TID 0000.0001)                   F
(PID.TID 0000.0001)     ;
(PID.TID 0000.0001) select_ZenAlbedo = /* Sea-water albedo computation method */
(PID.TID 0000.0001)                       0
(PID.TID 0000.0001)     ;
(PID.TID 0000.0001) useExfZenIncoming = /* compute incoming solar radiation */
(PID.TID 0000.0001)                   F
(PID.TID 0000.0001)     ;
(PID.TID 0000.0001) ocean_emissivity = /* longwave ocean-surface emissivity [-] */
(PID.TID 0000.0001)                 9.700176366843034E-01
(PID.TID 0000.0001)     ;
(PID.TID 0000.0001) ice_emissivity = /* longwave seaice emissivity [-] */
(PID.TID 0000.0001)                 9.500000000000000E-01
(PID.TID 0000.0001)     ;
(PID.TID 0000.0001) snow_emissivity = /* longwave snow  emissivity [-] */
(PID.TID 0000.0001)                 9.500000000000000E-01
(PID.TID 0000.0001)     ;
(PID.TID 0000.0001) 
(PID.TID 0000.0001)  EXF main CPP flags:
(PID.TID 0000.0001) 
(PID.TID 0000.0001) // USE_EXF_INTERPOLATION:          NOT defined
(PID.TID 0000.0001) // ALLOW_ATM_TEMP:                     defined
(PID.TID 0000.0001) // ALLOW_ATM_WIND:                     defined
(PID.TID 0000.0001) // ALLOW_DOWNWARD_RADIATION:           defined
(PID.TID 0000.0001) // ALLOW_BULKFORMULAE:                 defined
(PID.TID 0000.0001) 
(PID.TID 0000.0001)    Net shortwave flux forcing starts at                0.
(PID.TID 0000.0001)    Net shortwave flux forcing period is          2635200.
(PID.TID 0000.0001)    Net shortwave flux forcing is read from file:
(PID.TID 0000.0001)    >>    <<
(PID.TID 0000.0001) 
(PID.TID 0000.0001)    Zonal wind forcing starts at                   -1317600.
(PID.TID 0000.0001)    Zonal wind forcing period is                    2635200.
(PID.TID 0000.0001)    Zonal wind forcing is read from file:
(PID.TID 0000.0001)    >>  u_1ms_1x1_one_year  <<
(PID.TID 0000.0001) 
(PID.TID 0000.0001)    Meridional wind forcing starts at              -1317600.
(PID.TID 0000.0001)    Meridional wind forcing period is               2635200.
(PID.TID 0000.0001)    Meridional wind forcing is read from file:
(PID.TID 0000.0001)    >>  u_1ms_1x1_one_year  <<
(PID.TID 0000.0001) 
(PID.TID 0000.0001)    Atmospheric temperature starts at              -1317600.
(PID.TID 0000.0001)    Atmospheric temperature period is                 86400.
(PID.TID 0000.0001)    Atmospheric temperature is read from file:
(PID.TID 0000.0001)    >>  atemp_1x1_one_year  <<
(PID.TID 0000.0001) 
(PID.TID 0000.0001)    Atmospheric specific humidity starts at               0.
(PID.TID 0000.0001)    Atmospheric specific humidity period is         2635200.
(PID.TID 0000.0001)    Atmospheric specific humidity is read from file:
(PID.TID 0000.0001)    >>    <<
(PID.TID 0000.0001) 
(PID.TID 0000.0001)    Net longwave flux forcing starts at                 0.
(PID.TID 0000.0001)    Net longwave flux forcing period is           2635200.
(PID.TID 0000.0001)    Net longwave flux forcing is read from file:
(PID.TID 0000.0001)    >>    <<
(PID.TID 0000.0001) 
(PID.TID 0000.0001)    Precipitation data set starts at                      0.
(PID.TID 0000.0001)    Precipitation data period is                    2635200.
(PID.TID 0000.0001)    Precipitation data is read from file:
(PID.TID 0000.0001)    >>    <<
(PID.TID 0000.0001) 
(PID.TID 0000.0001) // EXF_READ_EVAP:                  NOT defined
(PID.TID 0000.0001) 
(PID.TID 0000.0001) // ALLOW_RUNOFF:                       defined
(PID.TID 0000.0001)    Runoff starts at               0.
(PID.TID 0000.0001)    Runoff period is               0.
(PID.TID 0000.0001)    Runoff is read from file:
(PID.TID 0000.0001)    >>    <<
(PID.TID 0000.0001) 
(PID.TID 0000.0001)    Downward shortwave flux forcing starts at         -1317600.
(PID.TID 0000.0001)    Downward shortwave flux forcing period is            86400.
(PID.TID 0000.0001)    Downward shortwave flux forcing is read from file:
(PID.TID 0000.0001)    >>  dswrf_1x1_one_year  <<
(PID.TID 0000.0001) 
(PID.TID 0000.0001)    Downward longwave flux forcing starts at          -1317600.
(PID.TID 0000.0001)    Downward longwave flux forcing period is             86400.
(PID.TID 0000.0001)    Downward longwave flux forcing is read from file:
(PID.TID 0000.0001)    >>  dlwrf_1x1_one_year  <<
(PID.TID 0000.0001) 
(PID.TID 0000.0001)    Atmospheric pressure forcing starts at                0.
(PID.TID 0000.0001)    Atmospheric pressure forcing period is                0.
(PID.TID 0000.0001)    Atmospheric pressureforcing is read from file:
(PID.TID 0000.0001)    >>    <<
(PID.TID 0000.0001) 
(PID.TID 0000.0001) // =======================================================
(PID.TID 0000.0001) // External forcing (EXF) climatology configuration :
(PID.TID 0000.0001) // =======================================================
(PID.TID 0000.0001) 
(PID.TID 0000.0001) // ALLOW_CLIMSST_RELAXATION:           defined
(PID.TID 0000.0001) // ALLOW_CLIMSSS_RELAXATION:           defined
(PID.TID 0000.0001) 
(PID.TID 0000.0001)    Climatological SST starts at                   0.
(PID.TID 0000.0001)    Climatological SST period is                   0.
(PID.TID 0000.0001)    Climatological SST is read from file:
(PID.TID 0000.0001)    >>    <<
(PID.TID 0000.0001) 
(PID.TID 0000.0001)    Climatological SSS starts at                   0.
(PID.TID 0000.0001)    Climatological SSS period is                   0.
(PID.TID 0000.0001)    Climatological SSS is read from file:
(PID.TID 0000.0001)    >>    <<
(PID.TID 0000.0001) 
(PID.TID 0000.0001) // =======================================================
(PID.TID 0000.0001) // External forcing (EXF) configuration  >>> END <<<
(PID.TID 0000.0001) // =======================================================
(PID.TID 0000.0001) 
(PID.TID 0000.0001)  OPEN_COPY_DATA_FILE: opening file data.err
(PID.TID 0000.0001) // =======================================================
(PID.TID 0000.0001) // Parameter file "data.err"
(PID.TID 0000.0001) // =======================================================
(PID.TID 0000.0001) > 0.25
(PID.TID 0000.0001) >    0.5201    0.2676
(PID.TID 0000.0001) >    0.5199    0.2224
(PID.TID 0000.0001) >    0.5201    0.1942
(PID.TID 0000.0001) >    0.5142    0.1751
(PID.TID 0000.0001) >    0.4917    0.1452
(PID.TID 0000.0001) >    0.4707    0.1223
(PID.TID 0000.0001) >    0.4324    0.1125
(PID.TID 0000.0001) >    0.3782    0.1078
(PID.TID 0000.0001) >    0.3103    0.0884
(PID.TID 0000.0001) >    0.2435    0.0785
(PID.TID 0000.0001) >    0.1994    0.0777
(PID.TID 0000.0001) >    0.1582    0.0702
(PID.TID 0000.0001) >    0.1144    0.0710
(PID.TID 0000.0001) >    0.0905    0.0599
(PID.TID 0000.0001) >    0.0659    0.0510
(PID.TID 0000.0001) >    0.0602    0.0408
(PID.TID 0000.0001) >    0.0508    0.0399
(PID.TID 0000.0001) >    0.0498    0.0314
(PID.TID 0000.0001) >    0.0501    0.0205
(PID.TID 0000.0001) >    0.0500    0.0199
(PID.TID 0000.0001) >    0.0500    0.0200
(PID.TID 0000.0001) >    0.0500    0.0200
(PID.TID 0000.0001) >    0.0500    0.0200
(PID.TID 0000.0001) 
(PID.TID 0000.0001) 
(PID.TID 0000.0001) // =======================================================
(PID.TID 0000.0001) // ECCO cost function configuration  >>> START <<<
(PID.TID 0000.0001) // =======================================================
(PID.TID 0000.0001) 
(PID.TID 0000.0001)   Multipliers for the indivdual cost function contributions:
(PID.TID 0000.0001) 
(PID.TID 0000.0001)   Net heat flux:                 0.000E+00
(PID.TID 0000.0001)   Salt flux:                     0.000E+00
(PID.TID 0000.0001)   Zonal wind stress:             0.000E+00
(PID.TID 0000.0001)   Meridional wind stress:        0.000E+00
(PID.TID 0000.0001)   Mean sea surface height:       0.000E+00
(PID.TID 0000.0001)   Sea surface height anomalies:  0.000E+00
(PID.TID 0000.0001)   Temperature Lev.:              0.000E+00
(PID.TID 0000.0001)   Salinity Lev.:                 0.000E+00
(PID.TID 0000.0001)   Temperature ini.:              0.000E+00
(PID.TID 0000.0001)   Salinity ini.:                 0.000E+00
(PID.TID 0000.0001)   Sea level ini.:                0.000E+00
(PID.TID 0000.0001)   zonal velocity ini.:           0.000E+00
(PID.TID 0000.0001)   merid velocity ini.:           0.000E+00
(PID.TID 0000.0001)   TMI Sea surface temperature:   0.000E+00
(PID.TID 0000.0001)   Sea surface temperature:       0.000E+00
(PID.TID 0000.0001)   Sea surface salinity:         0.000E+00
(PID.TID 0000.0001)   CTD temperature:               0.000E+00
(PID.TID 0000.0001)   CTD salinity:                  0.000E+00
(PID.TID 0000.0001)   CTD clim temperature:          0.000E+00
(PID.TID 0000.0001)   CTD clim salinity:             0.000E+00
(PID.TID 0000.0001)   XBT Temperature:               0.000E+00
(PID.TID 0000.0001)   ARGO Temperature:               0.000E+00
(PID.TID 0000.0001)   ARGO Salt:                      0.000E+00
(PID.TID 0000.0001)   drifter velocities:            0.000E+00
(PID.TID 0000.0001)   drift between last and 1st year: 0.000E+00
(PID.TID 0000.0001)   drift between last and 1st year: 0.000E+00
(PID.TID 0000.0001)   Ageostrophic bdy flow:         0.000E+00
(PID.TID 0000.0001)   OB North:                      0.000E+00
(PID.TID 0000.0001)   OB South:                      0.000E+00
(PID.TID 0000.0001)   OB West:                       0.000E+00
(PID.TID 0000.0001)   OB East:                       0.000E+00
(PID.TID 0000.0001) 
(PID.TID 0000.0001) 
(PID.TID 0000.0001)   Temperature data are read from: t_ref_1x1x23x13
(PID.TID 0000.0001)   Salinity data are read from:    s_ref_1x1x23x13
(PID.TID 0000.0001) ctrl-wet 1:    nvarlength =           64
(PID.TID 0000.0001) ctrl-wet 2: surface wet C =            1
(PID.TID 0000.0001) ctrl-wet 3: surface wet W =            1
(PID.TID 0000.0001) ctrl-wet 4: surface wet S =            1
(PID.TID 0000.0001) ctrl-wet 4a:surface wet V =            0
(PID.TID 0000.0001) ctrl-wet 5: 3D wet points =           23
(PID.TID 0000.0001) ctrl-wet 6: no recs for i =     1           1
(PID.TID 0000.0001) ctrl-wet 6: no recs for i =     2           1
(PID.TID 0000.0001) ctrl-wet 6: no recs for i =     3           0
(PID.TID 0000.0001) ctrl-wet 6: no recs for i =     4           0
(PID.TID 0000.0001) ctrl-wet 6: no recs for i =     5           0
(PID.TID 0000.0001) ctrl-wet 6: no recs for i =     6           0
(PID.TID 0000.0001) ctrl-wet 6: no recs for i =     7           2
(PID.TID 0000.0001) ctrl-wet 6: no recs for i =     8           2
(PID.TID 0000.0001) ctrl-wet 6: no recs for i =     9           2
(PID.TID 0000.0001) ctrl-wet 6: no recs for i =    10           2
(PID.TID 0000.0001) ctrl-wet 6: no recs for i =    11           0
(PID.TID 0000.0001) ctrl-wet 6: no recs for i =    12           0
(PID.TID 0000.0001) ctrl-wet 6: no recs for i =    13           0
(PID.TID 0000.0001) ctrl-wet 6: no recs for i =    14           0
(PID.TID 0000.0001) ctrl-wet 6: no recs for i =    15           0
(PID.TID 0000.0001) ctrl-wet 6: no recs for i =    16           0
(PID.TID 0000.0001) ctrl-wet 6: no recs for i =    17           0
(PID.TID 0000.0001) ctrl-wet 6: no recs for i =    18           0
(PID.TID 0000.0001) ctrl-wet 6: no recs for i =    19           0
(PID.TID 0000.0001) ctrl-wet 6: no recs for i =    20           0
(PID.TID 0000.0001) ctrl-wet 6: no recs for i =    21           0
(PID.TID 0000.0001) ctrl-wet 6: no recs for i =    22           0
(PID.TID 0000.0001) ctrl-wet 6: no recs for i =    23           0
(PID.TID 0000.0001) ctrl-wet 6: no recs for i =    24           0
(PID.TID 0000.0001) ctrl-wet 6: no recs for i =    25           0
(PID.TID 0000.0001) ctrl-wet 6: no recs for i =    26           0
(PID.TID 0000.0001) ctrl-wet 6: no recs for i =    27           0
(PID.TID 0000.0001) ctrl-wet 6: no recs for i =    28           0
(PID.TID 0000.0001) ctrl-wet 6: no recs for i =    29           0
(PID.TID 0000.0001) ctrl-wet 6: no recs for i =    30           0
(PID.TID 0000.0001) ctrl-wet 6: no recs for i =    31           0
(PID.TID 0000.0001) ctrl-wet 6: no recs for i =    32           2
(PID.TID 0000.0001) ctrl-wet 6: no recs for i =    33           0
(PID.TID 0000.0001) ctrl-wet 6: no recs for i =    34           2
(PID.TID 0000.0001) ctrl-wet 6: no recs for i =    35           0
(PID.TID 0000.0001) ctrl-wet 6: no recs for i =    36           2
(PID.TID 0000.0001) ctrl-wet 6: no recs for i =    37           0
(PID.TID 0000.0001) ctrl-wet 6: no recs for i =    38           2
(PID.TID 0000.0001) ctrl-wet 6: no recs for i =    39           2
(PID.TID 0000.0001) ctrl-wet 6: no recs for i =    40           0
(PID.TID 0000.0001) ctrl-wet 6: no recs for i =    41           0
(PID.TID 0000.0001) ctrl-wet 6: no recs for i =    42           0
(PID.TID 0000.0001) ctrl-wet 6: no recs for i =    43           0
(PID.TID 0000.0001) ctrl-wet 6: no recs for i =    44           0
(PID.TID 0000.0001) ctrl-wet 6: no recs for i =    45           0
(PID.TID 0000.0001) ctrl-wet 6: no recs for i =    46           0
(PID.TID 0000.0001) ctrl-wet 6: no recs for i =    47           0
(PID.TID 0000.0001) ctrl-wet 6: no recs for i =    48           0
(PID.TID 0000.0001) ctrl-wet 6: no recs for i =    49           0
(PID.TID 0000.0001) ctrl-wet 6: no recs for i =    50           0
(PID.TID 0000.0001) ctrl-wet 6: no recs for i =    51           0
(PID.TID 0000.0001) ctrl-wet 6: no recs for i =    52           0
(PID.TID 0000.0001) ctrl-wet 6: no recs for i =    53           0
(PID.TID 0000.0001) ctrl-wet 6: no recs for i =    54           0
(PID.TID 0000.0001) ctrl-wet 6: no recs for i =    55           0
(PID.TID 0000.0001) ctrl-wet 6: no recs for i =    56           0
(PID.TID 0000.0001) ctrl-wet 6: no recs for i =    57           0
(PID.TID 0000.0001) ctrl-wet 6: no recs for i =    58           0
(PID.TID 0000.0001) ctrl-wet 6: no recs for i =    59           0
(PID.TID 0000.0001) ctrl-wet 6: no recs for i =    60           0
(PID.TID 0000.0001) ctrl-wet 7: flux            46
(PID.TID 0000.0001) ctrl-wet 8: atmos           54
(PID.TID 0000.0001) ctrl-wet -------------------------------------------------
(PID.TID 0000.0001) ctrl-wet 13: global nvarlength for Nr =   23          64
(PID.TID 0000.0001) ctrl-wet -------------------------------------------------
(PID.TID 0000.0001) ctrl-wet 14: global nWet C/S/W/V k=    1           1           1           1           0
(PID.TID 0000.0001) ctrl-wet 14: global nWet C/S/W/V k=    2           1           1           1           0
(PID.TID 0000.0001) ctrl-wet 14: global nWet C/S/W/V k=    3           1           1           1           0
(PID.TID 0000.0001) ctrl-wet 14: global nWet C/S/W/V k=    4           1           1           1           0
(PID.TID 0000.0001) ctrl-wet 14: global nWet C/S/W/V k=    5           1           1           1           0
(PID.TID 0000.0001) ctrl-wet 14: global nWet C/S/W/V k=    6           1           1           1           0
(PID.TID 0000.0001) ctrl-wet 14: global nWet C/S/W/V k=    7           1           1           1           0
(PID.TID 0000.0001) ctrl-wet 14: global nWet C/S/W/V k=    8           1           1           1           0
(PID.TID 0000.0001) ctrl-wet 14: global nWet C/S/W/V k=    9           1           1           1           0
(PID.TID 0000.0001) ctrl-wet 14: global nWet C/S/W/V k=   10           1           1           1           0
(PID.TID 0000.0001) ctrl-wet 14: global nWet C/S/W/V k=   11           1           1           1           0
(PID.TID 0000.0001) ctrl-wet 14: global nWet C/S/W/V k=   12           1           1           1           0
(PID.TID 0000.0001) ctrl-wet 14: global nWet C/S/W/V k=   13           1           1           1           0
(PID.TID 0000.0001) ctrl-wet 14: global nWet C/S/W/V k=   14           1           1           1           0
(PID.TID 0000.0001) ctrl-wet 14: global nWet C/S/W/V k=   15           1           1           1           0
(PID.TID 0000.0001) ctrl-wet 14: global nWet C/S/W/V k=   16           1           1           1           0
(PID.TID 0000.0001) ctrl-wet 14: global nWet C/S/W/V k=   17           1           1           1           0
(PID.TID 0000.0001) ctrl-wet 14: global nWet C/S/W/V k=   18           1           1           1           0
(PID.TID 0000.0001) ctrl-wet 14: global nWet C/S/W/V k=   19           1           1           1           0
(PID.TID 0000.0001) ctrl-wet 14: global nWet C/S/W/V k=   20           1           1           1           0
(PID.TID 0000.0001) ctrl-wet 14: global nWet C/S/W/V k=   21           1           1           1           0
(PID.TID 0000.0001) ctrl-wet 14: global nWet C/S/W/V k=   22           1           1           1           0
(PID.TID 0000.0001) ctrl-wet 14: global nWet C/S/W/V k=   23           1           1           1           0
(PID.TID 0000.0001) ctrl-wet -------------------------------------------------
(PID.TID 0000.0001) ctrl-wet -------------------------------------------------
(PID.TID 0000.0001) ctrl-wet -------------------------------------------------
(PID.TID 0000.0001) ctrl_init: no. of control variables:           11
(PID.TID 0000.0001) ctrl_init: control vector length:              64
(PID.TID 0000.0001) 
(PID.TID 0000.0001) // =======================================================
(PID.TID 0000.0001) // Seaice configuration (SEAICE_PARM01) >>> START <<<
(PID.TID 0000.0001) // =======================================================
(PID.TID 0000.0001) 
(PID.TID 0000.0001) 
(PID.TID 0000.0001)    Seaice time stepping configuration   > START <
(PID.TID 0000.0001)    ----------------------------------------------
(PID.TID 0000.0001) SEAICE_deltaTtherm= /* thermodynamic timestep */
(PID.TID 0000.0001)                 3.600000000000000E+03
(PID.TID 0000.0001)     ;
(PID.TID 0000.0001) SEAICE_deltaTdyn  = /* dynamic timestep */
(PID.TID 0000.0001)                 3.600000000000000E+03
(PID.TID 0000.0001)     ;
(PID.TID 0000.0001) SEAICE_deltaTevp  = /* EVP timestep */
(PID.TID 0000.0001)                 1.234567000000000E+05
(PID.TID 0000.0001)     ;
(PID.TID 0000.0001) SEAICErestoreUnderIce  = /* restore T and S under ice */
(PID.TID 0000.0001)                   F
(PID.TID 0000.0001)     ;
(PID.TID 0000.0001) 
(PID.TID 0000.0001)    Seaice dynamics configuration   > START <
(PID.TID 0000.0001)    ------------------------------------------
(PID.TID 0000.0001) SEAICEuseDYNAMICS = /* use dynamics */
(PID.TID 0000.0001)                   F
(PID.TID 0000.0001)     ;
(PID.TID 0000.0001)    pkg/seaice dynamics is OFF
(PID.TID 0000.0001) 
(PID.TID 0000.0001)    Seaice thermodynamics configuration   > START <
(PID.TID 0000.0001)    -----------------------------------------------
(PID.TID 0000.0001) SEAICE_rhoIce     = /* density of sea ice (kg/m3) */
(PID.TID 0000.0001)                 9.100000000000000E+02
(PID.TID 0000.0001)     ;
(PID.TID 0000.0001) SEAICE_rhoSnow    = /* density of snow (kg/m3) */
(PID.TID 0000.0001)                 3.300000000000000E+02
(PID.TID 0000.0001)     ;
(PID.TID 0000.0001) SEAICE_rhoAir     = /* density of air (kg/m3) */
(PID.TID 0000.0001)                 1.200000000000000E+00
(PID.TID 0000.0001)     ;
(PID.TID 0000.0001) usePW79thermodynamics  = /* default 0-layer TD */
(PID.TID 0000.0001)                   T
(PID.TID 0000.0001)     ;
(PID.TID 0000.0001) SEAICE_lhEvap     = /* latent heat of evaporation */
(PID.TID 0000.0001)                 2.500000000000000E+06
(PID.TID 0000.0001)     ;
(PID.TID 0000.0001) SEAICE_lhFusion   = /* latent heat of fusion */
(PID.TID 0000.0001)                 3.340000000000000E+05
(PID.TID 0000.0001)     ;
(PID.TID 0000.0001) SEAICE_mcPheePiston = /* turbulent flux "piston velocity" a la McPhee (m/s) */
(PID.TID 0000.0001)                 8.749999999999999E-04
(PID.TID 0000.0001)     ;
(PID.TID 0000.0001) SEAICE_mcPheeTaper = /* tapering of turbulent flux (0.< <1.) for AREA=1. */
(PID.TID 0000.0001)                 9.200000000000000E-01
(PID.TID 0000.0001)     ;
(PID.TID 0000.0001) SEAICE_mcPheeStepFunc = /* replace linear tapering with step funct. */
(PID.TID 0000.0001)                   F
(PID.TID 0000.0001)     ;
(PID.TID 0000.0001) SEAICE_frazilFrac = /* frazil (T<tempFrz) to seaice conversion rate (0.< <1.) */
(PID.TID 0000.0001)                 0.000000000000000E+00
(PID.TID 0000.0001)     ;
(PID.TID 0000.0001) SEAICE_tempFrz0   = /* freezing temp. of sea water (intercept) */
(PID.TID 0000.0001)                -1.960000000000000E+00
(PID.TID 0000.0001)     ;
(PID.TID 0000.0001) SEAICE_dTempFrz_dS= /* freezing temp. of sea water (slope) */
(PID.TID 0000.0001)                 0.000000000000000E+00
(PID.TID 0000.0001)     ;
(PID.TID 0000.0001) SEAICE_areaGainFormula = /* ice cover gain formula (1,2)*/
(PID.TID 0000.0001)                       1
(PID.TID 0000.0001)     1=from growth by ATM
(PID.TID 0000.0001)     2=from predicted growth by ATM
(PID.TID 0000.0001)     ;
(PID.TID 0000.0001) SEAICE_areaLossFormula = /* ice cover loss formula (1,2)*/
(PID.TID 0000.0001)                       1
(PID.TID 0000.0001)     1=from all but only melt conributions by ATM and OCN
(PID.TID 0000.0001)     2=from net melt-grow>0 by ATM and OCN
(PID.TID 0000.0001)     3=from predicted melt by ATM
(PID.TID 0000.0001)     ;
(PID.TID 0000.0001) HO                = /* nominal thickness of new ice */
(PID.TID 0000.0001)                 5.000000000000000E-01
(PID.TID 0000.0001)     ;
(PID.TID 0000.0001) HO_south               = /* Southern Ocean HO */
(PID.TID 0000.0001)                 5.000000000000000E-01
(PID.TID 0000.0001)     ;
(PID.TID 0000.0001) SEAICE_area_max        = /* set to les than 1. to mimic open leads */
(PID.TID 0000.0001)                 1.000000000000000E+00
(PID.TID 0000.0001)     ;
(PID.TID 0000.0001)    Sea ice has a variable salinity such that
(PID.TID 0000.0001) SEAICE_saltFrac = /* fraction of ocn salinity in new ice */
(PID.TID 0000.0001)                 3.000000000000000E-01
(PID.TID 0000.0001)     ;
(PID.TID 0000.0001) SEAICE_salinityTracer = /* test SITR varia. salinity */
(PID.TID 0000.0001)                   F
(PID.TID 0000.0001)     ;
(PID.TID 0000.0001) SEAICEuseFlooding = /* turn submerged snow into ice */
(PID.TID 0000.0001)                   T
(PID.TID 0000.0001)     ;
(PID.TID 0000.0001) MAX_HEFF has no effect because SEAICE_CAP_HEFF is undefined
(PID.TID 0000.0001) MAX_HEFF          = /* maximum ice thickness */
(PID.TID 0000.0001)                 1.000000000000000E+01
(PID.TID 0000.0001)     ;
(PID.TID 0000.0001) 
(PID.TID 0000.0001)    Seaice advection diffusion config,   > START <
(PID.TID 0000.0001)    -----------------------------------------------
(PID.TID 0000.0001) SEAICEadvHeff = /* advect effective ice thickness */
(PID.TID 0000.0001)                   T
(PID.TID 0000.0001)     ;
(PID.TID 0000.0001) SEAICEadvArea = /* advect fractional ice area */
(PID.TID 0000.0001)                   T
(PID.TID 0000.0001)     ;
(PID.TID 0000.0001) SEAICEadvSnow = /* advect snow layer together with ice */
(PID.TID 0000.0001)                   T
(PID.TID 0000.0001)     ;
(PID.TID 0000.0001) SEAICEadvSalt = /* advect salinity together with ice */
(PID.TID 0000.0001)                   F
(PID.TID 0000.0001)     ;
(PID.TID 0000.0001) SEAICEadvScheme   = /* advection scheme for ice */
(PID.TID 0000.0001)                       2
(PID.TID 0000.0001)     ;
(PID.TID 0000.0001) SEAICEuseFluxForm = /* advection in FV flux form */
(PID.TID 0000.0001)                   T
(PID.TID 0000.0001)     ;
(PID.TID 0000.0001) SEAICEadvSchArea   = /* advection scheme for area */
(PID.TID 0000.0001)                       2
(PID.TID 0000.0001)     ;
(PID.TID 0000.0001) SEAICEadvSchHeff   = /* advection scheme for thickness */
(PID.TID 0000.0001)                       2
(PID.TID 0000.0001)     ;
(PID.TID 0000.0001) SEAICEadvSchSnow   = /* advection scheme for snow */
(PID.TID 0000.0001)                       2
(PID.TID 0000.0001)     ;
(PID.TID 0000.0001) SEAICEdiffKhArea   = /* diffusivity (m^2/s) for area */
(PID.TID 0000.0001)                 0.000000000000000E+00
(PID.TID 0000.0001)     ;
(PID.TID 0000.0001) SEAICEdiffKhHeff   = /* diffusivity (m^2/s) for heff */
(PID.TID 0000.0001)                 0.000000000000000E+00
(PID.TID 0000.0001)     ;
(PID.TID 0000.0001) SEAICEdiffKhSnow   = /* diffusivity (m^2/s) for snow */
(PID.TID 0000.0001)                 0.000000000000000E+00
(PID.TID 0000.0001)     ;
(PID.TID 0000.0001) DIFF1             = /* parameter used in advect.F [m/s] */
(PID.TID 0000.0001)                 0.000000000000000E+00
(PID.TID 0000.0001)     ;
(PID.TID 0000.0001) 
(PID.TID 0000.0001)    Seaice air-sea fluxes configuration,   > START <
(PID.TID 0000.0001)    -----------------------------------------------
(PID.TID 0000.0001) SEAICEheatConsFix  = /* accound for ocn<->seaice advect. heat flux */
(PID.TID 0000.0001)                   F
(PID.TID 0000.0001)     ;
(PID.TID 0000.0001) SEAICE_multDim    = /* number of ice categories (1 or 7) */
(PID.TID 0000.0001)                       1
(PID.TID 0000.0001)     ;
(PID.TID 0000.0001) IMAX_TICE         = /* iterations for ice surface temp */
(PID.TID 0000.0001)                       6
(PID.TID 0000.0001)     ;
(PID.TID 0000.0001) postSolvTempIter= /* flux calculation after surf. temp iter */
(PID.TID 0000.0001)                       2
(PID.TID 0000.0001)     ;
(PID.TID 0000.0001) SEAICE_dryIceAlb  = /* winter albedo */
(PID.TID 0000.0001)                 7.500000000000000E-01
(PID.TID 0000.0001)     ;
(PID.TID 0000.0001) SEAICE_wetIceAlb  = /* summer albedo */
(PID.TID 0000.0001)                 6.600000000000000E-01
(PID.TID 0000.0001)     ;
(PID.TID 0000.0001) SEAICE_drySnowAlb = /* dry snow albedo */
(PID.TID 0000.0001)                 8.400000000000000E-01
(PID.TID 0000.0001)     ;
(PID.TID 0000.0001) SEAICE_wetSnowAlb = /* wet snow albedo */
(PID.TID 0000.0001)                 7.000000000000000E-01
(PID.TID 0000.0001)     ;
(PID.TID 0000.0001) SEAICE_dryIceAlb_south = /* Southern Ocean dryIceAlb */
(PID.TID 0000.0001)                 7.500000000000000E-01
(PID.TID 0000.0001)     ;
(PID.TID 0000.0001) SEAICE_wetIceAlb_south = /* Southern Ocean wetIceAlb */
(PID.TID 0000.0001)                 6.600000000000000E-01
(PID.TID 0000.0001)     ;
(PID.TID 0000.0001) SEAICE_drySnowAlb_south= /* Southern Ocean drySnowAlb */
(PID.TID 0000.0001)                 8.400000000000000E-01
(PID.TID 0000.0001)     ;
(PID.TID 0000.0001) SEAICE_wetSnowAlb_south= /* Southern Ocean wetSnowAlb */
(PID.TID 0000.0001)                 7.000000000000000E-01
(PID.TID 0000.0001)     ;
(PID.TID 0000.0001) SEAICE_wetAlbTemp= /* Temp (o.C) threshold for wet-albedo */
(PID.TID 0000.0001)                 0.000000000000000E+00
(PID.TID 0000.0001)     ;
(PID.TID 0000.0001) SEAICE_snow_emiss = /* snow emissivity */
(PID.TID 0000.0001)                 9.700176366843034E-01
(PID.TID 0000.0001)     ;
(PID.TID 0000.0001) SEAICE_ice_emiss = /* seaice emissivity */
(PID.TID 0000.0001)                 9.700176366843034E-01
(PID.TID 0000.0001)     ;
(PID.TID 0000.0001) SEAICE_cpAir      = /* heat capacity of air */
(PID.TID 0000.0001)                 1.005000000000000E+03
(PID.TID 0000.0001)     ;
(PID.TID 0000.0001) SEAICE_dalton     = /* constant dalton number */
(PID.TID 0000.0001)                 1.750000000000000E-03
(PID.TID 0000.0001)     ;
(PID.TID 0000.0001) SEAICE_iceConduct = /* sea-ice conductivity */
(PID.TID 0000.0001)                 2.165600000000000E+00
(PID.TID 0000.0001)     ;
(PID.TID 0000.0001) SEAICE_snowConduct= /* snow conductivity */
(PID.TID 0000.0001)                 3.100000000000000E-01
(PID.TID 0000.0001)     ;
(PID.TID 0000.0001) SEAICE_snowThick  = /* cutoff snow thickness (for albedo) */
(PID.TID 0000.0001)                 0.000000000000000E+00
(PID.TID 0000.0001)     ;
(PID.TID 0000.0001) SEAICE_shortwave  = /* penetration shortwave radiation */
(PID.TID 0000.0001)                 3.000000000000000E-01
(PID.TID 0000.0001)     ;
(PID.TID 0000.0001) useMaykutSatVapPoly = /* use Maykut Polynomial for Sat.Vap.Pr */
(PID.TID 0000.0001)                   F
(PID.TID 0000.0001)     ;
(PID.TID 0000.0001) MIN_ATEMP         = /* minimum air temperature */
(PID.TID 0000.0001)                -5.000000000000000E+01
(PID.TID 0000.0001)     ;
(PID.TID 0000.0001) MIN_LWDOWN        = /* minimum downward longwave */
(PID.TID 0000.0001)                 6.000000000000000E+01
(PID.TID 0000.0001)     ;
(PID.TID 0000.0001) MIN_TICE          = /* minimum ice temperature */
(PID.TID 0000.0001)                -5.000000000000000E+01
(PID.TID 0000.0001)     ;
(PID.TID 0000.0001) 
(PID.TID 0000.0001)    Seaice initialization and IO config.,   > START <
(PID.TID 0000.0001)    -------------------------------------------------
(PID.TID 0000.0001) SEAICE_initialHEFF= /* initial sea-ice thickness */
(PID.TID 0000.0001)                 0.000000000000000E+00
(PID.TID 0000.0001)     ;
(PID.TID 0000.0001) AreaFile = /* Initial ice concentration File */
(PID.TID 0000.0001)               ''
(PID.TID 0000.0001)     ;
(PID.TID 0000.0001) HeffFile = /* Initial effective ice thickness File */
(PID.TID 0000.0001)               ''
(PID.TID 0000.0001)     ;
(PID.TID 0000.0001) HsnowFile = /* Initial snow thickness File */
(PID.TID 0000.0001)               'snow_0m_1x1'
(PID.TID 0000.0001)     ;
(PID.TID 0000.0001) HsaltFile = /* Initial HSALT File */
(PID.TID 0000.0001)               ''
(PID.TID 0000.0001)     ;
(PID.TID 0000.0001) uIceFile = /* Initial U-ice velocity File */
(PID.TID 0000.0001)               ''
(PID.TID 0000.0001)     ;
(PID.TID 0000.0001) vIceFile = /* Initial V-ice velocity File */
(PID.TID 0000.0001)               ''
(PID.TID 0000.0001)     ;
(PID.TID 0000.0001) SEAICEwriteState  = /* write sea ice state to file */
(PID.TID 0000.0001)                   T
(PID.TID 0000.0001)     ;
(PID.TID 0000.0001) SEAICE_monFreq  = /* monitor frequency */
(PID.TID 0000.0001)                 1.000000000000000E+00
(PID.TID 0000.0001)     ;
(PID.TID 0000.0001) SEAICE_dumpFreq   = /* dump frequency */
(PID.TID 0000.0001)                 0.000000000000000E+00
(PID.TID 0000.0001)     ;
(PID.TID 0000.0001) SEAICE_taveFreq   = /* time-averaging frequency */
(PID.TID 0000.0001)                 0.000000000000000E+00
(PID.TID 0000.0001)     ;
(PID.TID 0000.0001) SEAICE_mon_stdio  = /* write monitor to std-outp */
(PID.TID 0000.0001)                   T
(PID.TID 0000.0001)     ;
(PID.TID 0000.0001) SEAICE_dump_mdsio = /* write snap-shot   using MDSIO */
(PID.TID 0000.0001)                   T
(PID.TID 0000.0001)     ;
(PID.TID 0000.0001) SEAICE_tave_mdsio = /* write TimeAverage using MDSIO */
(PID.TID 0000.0001)                   T
(PID.TID 0000.0001)     ;
(PID.TID 0000.0001) 
(PID.TID 0000.0001)    Seaice regularization numbers,   > START <
(PID.TID 0000.0001)    -----------------------------------------------
(PID.TID 0000.0001) SEAICE_EPS        = /* reduce derivative singularities */
(PID.TID 0000.0001)                 1.000000000000000E-08
(PID.TID 0000.0001)     ;
(PID.TID 0000.0001) SEAICE_EPS_SQ     = /* reduce derivative singularities */
(PID.TID 0000.0001)                 1.000000000000000E-16
(PID.TID 0000.0001)     ;
(PID.TID 0000.0001) SEAICE_area_reg   = /* reduce derivative singularities */
(PID.TID 0000.0001)                 1.500000000000000E-01
(PID.TID 0000.0001)     ;
(PID.TID 0000.0001) SEAICE_hice_reg   = /* reduce derivative singularities */
(PID.TID 0000.0001)                 1.000000000000000E-01
(PID.TID 0000.0001)     ;
(PID.TID 0000.0001) SEAICE_area_floor = /* reduce derivative singularities */
(PID.TID 0000.0001)                 1.000000000000000E-05
(PID.TID 0000.0001)     ;
(PID.TID 0000.0001) // =======================================================
(PID.TID 0000.0001) // Seaice configuration (SEAICE_PARM01) >>> END <<<
(PID.TID 0000.0001) // =======================================================
(PID.TID 0000.0001) %MON fCori_max                    =   1.0000000000000E-04
(PID.TID 0000.0001) %MON fCori_min                    =   1.0000000000000E-04
(PID.TID 0000.0001) %MON fCori_mean                   =   1.0000000000000E-04
(PID.TID 0000.0001) %MON fCori_sd                     =   0.0000000000000E+00
(PID.TID 0000.0001) %MON fCoriG_max                   =   1.0000000000000E-04
(PID.TID 0000.0001) %MON fCoriG_min                   =   1.0000000000000E-04
(PID.TID 0000.0001) %MON fCoriG_mean                  =   1.0000000000000E-04
(PID.TID 0000.0001) %MON fCoriG_sd                    =   0.0000000000000E+00
(PID.TID 0000.0001) %MON fCoriCos_max                 =   0.0000000000000E+00
(PID.TID 0000.0001) %MON fCoriCos_min                 =   0.0000000000000E+00
(PID.TID 0000.0001) %MON fCoriCos_mean                =   0.0000000000000E+00
(PID.TID 0000.0001) %MON fCoriCos_sd                  =   0.0000000000000E+00
(PID.TID 0000.0001) INI_CG2D: CG2D normalisation factor =  1.9483302809492266E-03
(PID.TID 0000.0001) 
(PID.TID 0000.0001) // =======================================================
(PID.TID 0000.0001) // Model configuration
(PID.TID 0000.0001) // =======================================================
(PID.TID 0000.0001) //
(PID.TID 0000.0001) // "Physical" paramters ( PARM01 in namelist )
(PID.TID 0000.0001) //
(PID.TID 0000.0001) buoyancyRelation = /* Type of relation to get Buoyancy */
(PID.TID 0000.0001)               'OCEANIC'
(PID.TID 0000.0001)     ;
(PID.TID 0000.0001) fluidIsAir   =  /* fluid major constituent is Air */
(PID.TID 0000.0001)                   F
(PID.TID 0000.0001)     ;
(PID.TID 0000.0001) fluidIsWater =  /* fluid major constituent is Water */
(PID.TID 0000.0001)                   T
(PID.TID 0000.0001)     ;
(PID.TID 0000.0001) usingPCoords =  /* use p (or p*) vertical coordinate */
(PID.TID 0000.0001)                   F
(PID.TID 0000.0001)     ;
(PID.TID 0000.0001) usingZCoords =  /* use z (or z*) vertical coordinate */
(PID.TID 0000.0001)                   T
(PID.TID 0000.0001)     ;
(PID.TID 0000.0001) tRef =   /* Reference temperature profile ( oC or K ) */
(PID.TID 0000.0001)                -1.930000000000000E+00,      /* K =  1 */
(PID.TID 0000.0001)                -1.931000000000000E+00,      /* K =  2 */
(PID.TID 0000.0001)                -1.932000000000000E+00,      /* K =  3 */
(PID.TID 0000.0001)                -1.285400000000000E+00,      /* K =  4 */
(PID.TID 0000.0001)     2 @ -6.000000000000000E-01,             /* K =  5:  6 */
(PID.TID 0000.0001)                -9.000000000000000E-01,      /* K =  7 */
(PID.TID 0000.0001)     2 @ -1.200000000000000E+00,             /* K =  8:  9 */
(PID.TID 0000.0001)                -1.300000000000000E+00,      /* K = 10 */
(PID.TID 0000.0001)     2 @ -1.400000000000000E+00,             /* K = 11: 12 */
(PID.TID 0000.0001)     4 @ -1.500000000000000E+00,             /* K = 13: 16 */
(PID.TID 0000.0001)                -1.300000000000000E+00,      /* K = 17 */
(PID.TID 0000.0001)                -9.000000000000000E-01,      /* K = 18 */
(PID.TID 0000.0001)                -3.000000000000000E-01,      /* K = 19 */
(PID.TID 0000.0001)                 2.000000000000000E-01,      /* K = 20 */
(PID.TID 0000.0001)     3 @  5.000000000000000E-01              /* K = 21: 23 */
(PID.TID 0000.0001)     ;
(PID.TID 0000.0001) sRef =   /* Reference salinity profile ( psu ) */
(PID.TID 0000.0001)                 2.900790000000000E+01,      /* K =  1 */
(PID.TID 0000.0001)                 2.900800000000000E+01,      /* K =  2 */
(PID.TID 0000.0001)                 2.900860000000000E+01,      /* K =  3 */
(PID.TID 0000.0001)                 2.907750000000000E+01,      /* K =  4 */
(PID.TID 0000.0001)                 3.070000000000000E+01,      /* K =  5 */
(PID.TID 0000.0001)                 3.160000000000000E+01,      /* K =  6 */
(PID.TID 0000.0001)                 3.190000000000000E+01,      /* K =  7 */
(PID.TID 0000.0001)                 3.210000000000000E+01,      /* K =  8 */
(PID.TID 0000.0001)                 3.230000000000000E+01,      /* K =  9 */
(PID.TID 0000.0001)                 3.240000000000000E+01,      /* K = 10 */
(PID.TID 0000.0001)                 3.250000000000000E+01,      /* K = 11 */
(PID.TID 0000.0001)                 3.270000000000000E+01,      /* K = 12 */
(PID.TID 0000.0001)                 3.280000000000000E+01,      /* K = 13 */
(PID.TID 0000.0001)                 3.290000000000000E+01,      /* K = 14 */
(PID.TID 0000.0001)                 3.310000000000000E+01,      /* K = 15 */
(PID.TID 0000.0001)                 3.340000000000000E+01,      /* K = 16 */
(PID.TID 0000.0001)                 3.380000000000000E+01,      /* K = 17 */
(PID.TID 0000.0001)                 3.420000000000000E+01,      /* K = 18 */
(PID.TID 0000.0001)                 3.450000000000000E+01,      /* K = 19 */
(PID.TID 0000.0001)                 3.470000000000000E+01,      /* K = 20 */
(PID.TID 0000.0001)     3 @  3.480000000000000E+01              /* K = 21: 23 */
(PID.TID 0000.0001)     ;
(PID.TID 0000.0001) viscAh  =   /* Lateral eddy viscosity ( m^2/s ) */
(PID.TID 0000.0001)                 5.000000000000000E+04
(PID.TID 0000.0001)     ;
(PID.TID 0000.0001) viscAhMax = /* Maximum lateral eddy viscosity ( m^2/s ) */
(PID.TID 0000.0001)                 1.000000000000000E+21
(PID.TID 0000.0001)     ;
(PID.TID 0000.0001) viscAhGrid = /* Grid dependent lateral eddy viscosity ( non-dim. ) */
(PID.TID 0000.0001)                 0.000000000000000E+00
(PID.TID 0000.0001)     ;
(PID.TID 0000.0001) useFullLeith = /* Use Full Form of Leith Viscosity on/off flag*/
(PID.TID 0000.0001)                   F
(PID.TID 0000.0001)     ;
(PID.TID 0000.0001) useStrainTensionVisc= /* Use StrainTension Form of Viscous Operator flag*/
(PID.TID 0000.0001)                   F
(PID.TID 0000.0001)     ;
(PID.TID 0000.0001) useAreaViscLength = /* Use area for visc length instead of geom. mean*/
(PID.TID 0000.0001)                   F
(PID.TID 0000.0001)     ;
(PID.TID 0000.0001) viscC2leith = /* Leith harmonic visc. factor (on grad(vort),non-dim.) */
(PID.TID 0000.0001)                 0.000000000000000E+00
(PID.TID 0000.0001)     ;
(PID.TID 0000.0001) viscC2leithD = /* Leith harmonic viscosity factor (on grad(div),non-dim.)*/
(PID.TID 0000.0001)                 0.000000000000000E+00
(PID.TID 0000.0001)     ;
(PID.TID 0000.0001) viscC2smag = /* Smagorinsky harmonic viscosity factor (non-dim.) */
(PID.TID 0000.0001)                 0.000000000000000E+00
(PID.TID 0000.0001)     ;
(PID.TID 0000.0001) viscA4  =   /* Lateral biharmonic viscosity ( m^4/s ) */
(PID.TID 0000.0001)                 0.000000000000000E+00
(PID.TID 0000.0001)     ;
(PID.TID 0000.0001) viscA4Max = /* Maximum biharmonic viscosity ( m^2/s ) */
(PID.TID 0000.0001)                 1.000000000000000E+21
(PID.TID 0000.0001)     ;
(PID.TID 0000.0001) viscA4Grid = /* Grid dependent biharmonic viscosity ( non-dim. ) */
(PID.TID 0000.0001)                 0.000000000000000E+00
(PID.TID 0000.0001)     ;
(PID.TID 0000.0001) viscC4leith = /* Leith biharm viscosity factor (on grad(vort), non-dim.)*/
(PID.TID 0000.0001)                 0.000000000000000E+00
(PID.TID 0000.0001)     ;
(PID.TID 0000.0001) viscC4leithD = /* Leith biharm viscosity factor (on grad(div), non-dim.) */
(PID.TID 0000.0001)                 0.000000000000000E+00
(PID.TID 0000.0001)     ;
(PID.TID 0000.0001) viscC4Smag = /* Smagorinsky biharm viscosity factor (non-dim) */
(PID.TID 0000.0001)                 0.000000000000000E+00
(PID.TID 0000.0001)     ;
(PID.TID 0000.0001) no_slip_sides =  /* Viscous BCs: No-slip sides */
(PID.TID 0000.0001)                   F
(PID.TID 0000.0001)     ;
(PID.TID 0000.0001) sideDragFactor = /* side-drag scaling factor (non-dim) */
(PID.TID 0000.0001)                 2.000000000000000E+00
(PID.TID 0000.0001)     ;
(PID.TID 0000.0001) viscArNr = /* vertical profile of vertical viscosity ( m^2/s )*/
(PID.TID 0000.0001)    23 @  1.930000000000000E-05              /* K =  1: 23 */
(PID.TID 0000.0001)     ;
(PID.TID 0000.0001) no_slip_bottom =  /* Viscous BCs: No-slip bottom */
(PID.TID 0000.0001)                   T
(PID.TID 0000.0001)     ;
(PID.TID 0000.0001) bottomDragLinear = /* linear bottom-drag coefficient ( m/s ) */
(PID.TID 0000.0001)                 0.000000000000000E+00
(PID.TID 0000.0001)     ;
(PID.TID 0000.0001) bottomDragQuadratic = /* quadratic bottom-drag coefficient (-) */
(PID.TID 0000.0001)                 0.000000000000000E+00
(PID.TID 0000.0001)     ;
(PID.TID 0000.0001) diffKhT =   /* Laplacian diffusion of heat laterally ( m^2/s ) */
(PID.TID 0000.0001)                 0.000000000000000E+00
(PID.TID 0000.0001)     ;
(PID.TID 0000.0001) diffK4T =   /* Biharmonic diffusion of heat laterally ( m^4/s ) */
(PID.TID 0000.0001)                 0.000000000000000E+00
(PID.TID 0000.0001)     ;
(PID.TID 0000.0001) diffKhS =   /* Laplacian diffusion of salt laterally ( m^2/s ) */
(PID.TID 0000.0001)                 0.000000000000000E+00
(PID.TID 0000.0001)     ;
(PID.TID 0000.0001) diffK4S =   /* Biharmonic diffusion of salt laterally ( m^4/s ) */
(PID.TID 0000.0001)                 0.000000000000000E+00
(PID.TID 0000.0001)     ;
(PID.TID 0000.0001) diffKrNrT = /* vertical profile of vertical diffusion of Temp ( m^2/s )*/
(PID.TID 0000.0001)    23 @  1.460000000000000E-07              /* K =  1: 23 */
(PID.TID 0000.0001)     ;
(PID.TID 0000.0001) diffKrNrS = /* vertical profile of vertical diffusion of Salt ( m^2/s )*/
(PID.TID 0000.0001)    23 @  1.460000000000000E-07              /* K =  1: 23 */
(PID.TID 0000.0001)     ;
(PID.TID 0000.0001) diffKrBL79surf = /* Surface diffusion for Bryan and Lewis 79 ( m^2/s ) */
(PID.TID 0000.0001)                 0.000000000000000E+00
(PID.TID 0000.0001)     ;
(PID.TID 0000.0001) diffKrBL79deep = /* Deep diffusion for Bryan and Lewis 1979 ( m^2/s ) */
(PID.TID 0000.0001)                 0.000000000000000E+00
(PID.TID 0000.0001)     ;
(PID.TID 0000.0001) diffKrBL79scl = /* Depth scale for Bryan and Lewis 1979 ( m ) */
(PID.TID 0000.0001)                 2.000000000000000E+02
(PID.TID 0000.0001)     ;
(PID.TID 0000.0001) diffKrBL79Ho = /* Turning depth for Bryan and Lewis 1979 ( m ) */
(PID.TID 0000.0001)                -2.000000000000000E+03
(PID.TID 0000.0001)     ;
(PID.TID 0000.0001) ivdc_kappa = /* Implicit Vertical Diffusivity for Convection ( m^2/s) */
(PID.TID 0000.0001)                 0.000000000000000E+00
(PID.TID 0000.0001)     ;
(PID.TID 0000.0001) hMixCriteria=  /* Criteria for mixed-layer diagnostic */
(PID.TID 0000.0001)                -8.000000000000000E-01
(PID.TID 0000.0001)     ;
(PID.TID 0000.0001) dRhoSmall =  /* Parameter for mixed-layer diagnostic */
(PID.TID 0000.0001)                 1.000000000000000E-06
(PID.TID 0000.0001)     ;
(PID.TID 0000.0001) hMixSmooth=  /* Smoothing parameter for mixed-layer diagnostic */
(PID.TID 0000.0001)                 0.000000000000000E+00
(PID.TID 0000.0001)     ;
(PID.TID 0000.0001) eosType =  /* Type of Equation of State */
(PID.TID 0000.0001)               'JMD95Z'
(PID.TID 0000.0001)     ;
(PID.TID 0000.0001) celsius2K = /* 0 degree Celsius converted to Kelvin ( K ) */
(PID.TID 0000.0001)                 2.731600000000000E+02
(PID.TID 0000.0001)     ;
(PID.TID 0000.0001) rhoConst  = /* Reference density (Boussinesq)  ( kg/m^3 ) */
(PID.TID 0000.0001)                 1.027000000000000E+03
(PID.TID 0000.0001)     ;
(PID.TID 0000.0001) rhoFacC = /* normalized Reference density @ cell-Center (-) */
(PID.TID 0000.0001)    23 @  1.000000000000000E+00              /* K =  1: 23 */
(PID.TID 0000.0001)     ;
(PID.TID 0000.0001) rhoFacF = /* normalized Reference density @ W-Interface (-) */
(PID.TID 0000.0001)    24 @  1.000000000000000E+00              /* K =  1: 24 */
(PID.TID 0000.0001)     ;
(PID.TID 0000.0001) rhoConstFresh = /* Fresh-water reference density ( kg/m^3 ) */
(PID.TID 0000.0001)                 9.998000000000000E+02
(PID.TID 0000.0001)     ;
(PID.TID 0000.0001) gravity =   /* Gravitational acceleration ( m/s^2 ) */
(PID.TID 0000.0001)                 9.815600000000000E+00
(PID.TID 0000.0001)     ;
(PID.TID 0000.0001) gBaro =   /* Barotropic gravity ( m/s^2 ) */
(PID.TID 0000.0001)                 9.815600000000000E+00
(PID.TID 0000.0001)     ;
(PID.TID 0000.0001) rotationPeriod =   /* Rotation Period ( s ) */
(PID.TID 0000.0001)                 8.616400000000000E+04
(PID.TID 0000.0001)     ;
(PID.TID 0000.0001) omega =   /* Angular velocity ( rad/s ) */
(PID.TID 0000.0001)                 7.292123516990375E-05
(PID.TID 0000.0001)     ;
(PID.TID 0000.0001) f0 =   /* Reference coriolis parameter ( 1/s ) */
(PID.TID 0000.0001)                 1.000000000000000E-04
(PID.TID 0000.0001)     ;
(PID.TID 0000.0001) beta =   /* Beta ( 1/(m.s) ) */
(PID.TID 0000.0001)                 9.999999999999999E-12
(PID.TID 0000.0001)     ;
(PID.TID 0000.0001) fPrime =   /* Second coriolis parameter ( 1/s ) */
(PID.TID 0000.0001)                 0.000000000000000E+00
(PID.TID 0000.0001)     ;
(PID.TID 0000.0001) rigidLid =   /* Rigid lid on/off flag */
(PID.TID 0000.0001)                   F
(PID.TID 0000.0001)     ;
(PID.TID 0000.0001) implicitFreeSurface =   /* Implicit free surface on/off flag */
(PID.TID 0000.0001)                   T
(PID.TID 0000.0001)     ;
(PID.TID 0000.0001) freeSurfFac =   /* Implicit free surface factor */
(PID.TID 0000.0001)                 1.000000000000000E+00
(PID.TID 0000.0001)     ;
(PID.TID 0000.0001) implicSurfPress =  /* Surface Pressure implicit factor (0-1)*/
(PID.TID 0000.0001)                 1.000000000000000E+00
(PID.TID 0000.0001)     ;
(PID.TID 0000.0001) implicDiv2Dflow =  /* Barot. Flow Div. implicit factor (0-1)*/
(PID.TID 0000.0001)                 1.000000000000000E+00
(PID.TID 0000.0001)     ;
(PID.TID 0000.0001) uniformLin_PhiSurf = /* use uniform Bo_surf on/off flag*/
(PID.TID 0000.0001)                   T
(PID.TID 0000.0001)     ;
(PID.TID 0000.0001) uniformFreeSurfLev = /* free-surface level-index is uniform */
(PID.TID 0000.0001)                   T
(PID.TID 0000.0001)     ;
(PID.TID 0000.0001) hFacMin =   /* minimum partial cell factor (hFac) */
(PID.TID 0000.0001)                 1.000000000000000E+00
(PID.TID 0000.0001)     ;
(PID.TID 0000.0001) hFacMinDr = /* minimum partial cell thickness ( m) */
(PID.TID 0000.0001)                 1.000000000000000E+00
(PID.TID 0000.0001)     ;
(PID.TID 0000.0001) exactConserv =  /* Exact Volume Conservation on/off flag*/
(PID.TID 0000.0001)                   F
(PID.TID 0000.0001)     ;
(PID.TID 0000.0001) linFSConserveTr = /* Tracer correction for Lin Free Surface on/off flag*/
(PID.TID 0000.0001)                   F
(PID.TID 0000.0001)     ;
(PID.TID 0000.0001) nonlinFreeSurf = /* Non-linear Free Surf. options (-1,0,1,2,3)*/
(PID.TID 0000.0001)                       0
(PID.TID 0000.0001)      -1,0= Off ; 1,2,3= On, 2=+rescale gU,gV, 3=+update cg2d solv.
(PID.TID 0000.0001)     ;
(PID.TID 0000.0001) hFacInf =   /* lower threshold for hFac (nonlinFreeSurf only)*/
(PID.TID 0000.0001)                 2.000000000000000E-01
(PID.TID 0000.0001)     ;
(PID.TID 0000.0001) hFacSup =   /* upper threshold for hFac (nonlinFreeSurf only)*/
(PID.TID 0000.0001)                 2.000000000000000E+00
(PID.TID 0000.0001)     ;
(PID.TID 0000.0001) select_rStar = /* r* Vertical coord. options (=0 r coord.; >0 uses r*)*/
(PID.TID 0000.0001)                       0
(PID.TID 0000.0001)     ;
(PID.TID 0000.0001) useRealFreshWaterFlux = /* Real Fresh Water Flux on/off flag*/
(PID.TID 0000.0001)                   T
(PID.TID 0000.0001)     ;
(PID.TID 0000.0001) temp_EvPrRn = /* Temp. of Evap/Prec/R (UNSET=use local T)(oC)*/
(PID.TID 0000.0001)                 1.234567000000000E+05
(PID.TID 0000.0001)     ;
(PID.TID 0000.0001) salt_EvPrRn = /* Salin. of Evap/Prec/R (UNSET=use local S)(psu)*/
(PID.TID 0000.0001)                 0.000000000000000E+00
(PID.TID 0000.0001)     ;
(PID.TID 0000.0001) selectAddFluid = /* option for mass source/sink of fluid (=0: off) */
(PID.TID 0000.0001)                       0
(PID.TID 0000.0001)     ;
(PID.TID 0000.0001) temp_addMass = /* Temp. of addMass array (UNSET=use local T)(oC)*/
(PID.TID 0000.0001)                 1.234567000000000E+05
(PID.TID 0000.0001)     ;
(PID.TID 0000.0001) salt_addMass = /* Salin. of addMass array (UNSET=use local S)(psu)*/
(PID.TID 0000.0001)                 0.000000000000000E+00
(PID.TID 0000.0001)     ;
(PID.TID 0000.0001) convertFW2Salt = /* convert F.W. Flux to Salt Flux (-1=use local S)(psu)*/
(PID.TID 0000.0001)                -1.000000000000000E+00
(PID.TID 0000.0001)     ;
(PID.TID 0000.0001) use3Dsolver = /* use 3-D pressure solver on/off flag */
(PID.TID 0000.0001)                   F
(PID.TID 0000.0001)     ;
(PID.TID 0000.0001) nonHydrostatic =  /* Non-Hydrostatic on/off flag */
(PID.TID 0000.0001)                   F
(PID.TID 0000.0001)     ;
(PID.TID 0000.0001) nh_Am2 = /* Non-Hydrostatic terms scaling factor */
(PID.TID 0000.0001)                 1.000000000000000E+00
(PID.TID 0000.0001)     ;
(PID.TID 0000.0001) implicitNHPress = /* Non-Hyd Pressure implicit factor (0-1)*/
(PID.TID 0000.0001)                 1.000000000000000E+00
(PID.TID 0000.0001)     ;
(PID.TID 0000.0001) selectNHfreeSurf = /* Non-Hyd (free-)Surface option */
(PID.TID 0000.0001)                       0
(PID.TID 0000.0001)     ;
(PID.TID 0000.0001) quasiHydrostatic = /* Quasi-Hydrostatic on/off flag */
(PID.TID 0000.0001)                   F
(PID.TID 0000.0001)     ;
(PID.TID 0000.0001) calc_wVelocity = /* vertical velocity calculation on/off flag */
(PID.TID 0000.0001)                   T
(PID.TID 0000.0001)     ;
(PID.TID 0000.0001) momStepping =  /* Momentum equation on/off flag */
(PID.TID 0000.0001)                   T
(PID.TID 0000.0001)     ;
(PID.TID 0000.0001) vectorInvariantMomentum= /* Vector-Invariant Momentum on/off */
(PID.TID 0000.0001)                   T
(PID.TID 0000.0001)     ;
(PID.TID 0000.0001) momAdvection =  /* Momentum advection on/off flag */
(PID.TID 0000.0001)                   T
(PID.TID 0000.0001)     ;
(PID.TID 0000.0001) momViscosity =  /* Momentum viscosity on/off flag */
(PID.TID 0000.0001)                   T
(PID.TID 0000.0001)     ;
(PID.TID 0000.0001) momImplVertAdv= /* Momentum implicit vert. advection on/off*/
(PID.TID 0000.0001)                   F
(PID.TID 0000.0001)     ;
(PID.TID 0000.0001) implicitViscosity = /* Implicit viscosity on/off flag */
(PID.TID 0000.0001)                   T
(PID.TID 0000.0001)     ;
(PID.TID 0000.0001) metricTerms =  /* metric-Terms on/off flag */
(PID.TID 0000.0001)                   F
(PID.TID 0000.0001)     ;
(PID.TID 0000.0001) useNHMTerms = /* Non-Hydrostatic Metric-Terms on/off */
(PID.TID 0000.0001)                   F
(PID.TID 0000.0001)     ;
(PID.TID 0000.0001) selectCoriMap = /* Coriolis Map options (0,1,2,3)*/
(PID.TID 0000.0001)                       0
(PID.TID 0000.0001)     0= f-Plane ; 1= Beta-Plane ; 2= Spherical ; 3= read from file
(PID.TID 0000.0001)     ;
(PID.TID 0000.0001) use3dCoriolis = /* 3-D Coriolis on/off flag */
(PID.TID 0000.0001)                   F
(PID.TID 0000.0001)     ;
(PID.TID 0000.0001) useCoriolis =  /* Coriolis on/off flag */
(PID.TID 0000.0001)                   T
(PID.TID 0000.0001)     ;
(PID.TID 0000.0001) useCDscheme =  /* CD scheme on/off flag */
(PID.TID 0000.0001)                   F
(PID.TID 0000.0001)     ;
(PID.TID 0000.0001) useEnergyConservingCoriolis= /* Flx-Form Coriolis scheme flag */
(PID.TID 0000.0001)                   F
(PID.TID 0000.0001)     ;
(PID.TID 0000.0001) useJamartWetPoints= /* Coriolis WetPoints method flag */
(PID.TID 0000.0001)                   F
(PID.TID 0000.0001)     ;
(PID.TID 0000.0001) useJamartMomAdv= /* V.I Non-linear terms Jamart flag */
(PID.TID 0000.0001)                   F
(PID.TID 0000.0001)     ;
(PID.TID 0000.0001) useAbsVorticity= /* V.I Works with f+zeta in Coriolis */
(PID.TID 0000.0001)                   F
(PID.TID 0000.0001)     ;
(PID.TID 0000.0001) selectVortScheme= /* V.I Scheme selector for Vorticity-Term */
(PID.TID 0000.0001)                       1
(PID.TID 0000.0001)    = 0 : enstrophy (Shallow-Water Eq.) conserving scheme by Sadourny, JAS 75
(PID.TID 0000.0001)    = 1 : same as 0 with modified hFac
(PID.TID 0000.0001)    = 2 : energy conserving scheme (used by Sadourny in JAS 75 paper)
(PID.TID 0000.0001)    = 3 : energy (general) and enstrophy (2D, nonDiv.) conserving scheme
(PID.TID 0000.0001)          from Sadourny (Burridge & Haseler, ECMWF Rep.4, 1977)
(PID.TID 0000.0001)     ;
(PID.TID 0000.0001) upwindVorticity= /* V.I Upwind bias vorticity flag */
(PID.TID 0000.0001)                   F
(PID.TID 0000.0001)     ;
(PID.TID 0000.0001) highOrderVorticity= /* V.I High order vort. advect. flag */
(PID.TID 0000.0001)                   F
(PID.TID 0000.0001)     ;
(PID.TID 0000.0001) upwindShear= /* V.I Upwind vertical Shear advection flag */
(PID.TID 0000.0001)                   F
(PID.TID 0000.0001)     ;
(PID.TID 0000.0001) selectKEscheme= /* V.I Kinetic Energy scheme selector */
(PID.TID 0000.0001)                       0
(PID.TID 0000.0001)     ;
(PID.TID 0000.0001) momForcing =  /* Momentum forcing on/off flag */
(PID.TID 0000.0001)                   T
(PID.TID 0000.0001)     ;
(PID.TID 0000.0001) momPressureForcing =  /* Momentum pressure term on/off flag */
(PID.TID 0000.0001)                   T
(PID.TID 0000.0001)     ;
(PID.TID 0000.0001) implicitIntGravWave= /* Implicit Internal Gravity Wave flag */
(PID.TID 0000.0001)                   F
(PID.TID 0000.0001)     ;
(PID.TID 0000.0001) staggerTimeStep =    /* Stagger time stepping on/off flag */
(PID.TID 0000.0001)                   T
(PID.TID 0000.0001)     ;
(PID.TID 0000.0001) doResetHFactors = /* reset thickness factors @ each time-step */
(PID.TID 0000.0001)                   F
(PID.TID 0000.0001)     ;
(PID.TID 0000.0001) multiDimAdvection =  /* enable/disable Multi-Dim Advection */
(PID.TID 0000.0001)                   F
(PID.TID 0000.0001)     ;
(PID.TID 0000.0001) useMultiDimAdvec =   /* Multi-Dim Advection is/is-not used */
(PID.TID 0000.0001)                   F
(PID.TID 0000.0001)     ;
(PID.TID 0000.0001) implicitDiffusion = /* Implicit Diffusion on/off flag */
(PID.TID 0000.0001)                   T
(PID.TID 0000.0001)     ;
(PID.TID 0000.0001) tempStepping =  /* Temperature equation on/off flag */
(PID.TID 0000.0001)                   T
(PID.TID 0000.0001)     ;
(PID.TID 0000.0001) tempAdvection=  /* Temperature advection on/off flag */
(PID.TID 0000.0001)                   T
(PID.TID 0000.0001)     ;
(PID.TID 0000.0001) tempImplVertAdv = /* Temp. implicit vert. advection on/off */
(PID.TID 0000.0001)                   F
(PID.TID 0000.0001)     ;
(PID.TID 0000.0001) tempForcing  =  /* Temperature forcing on/off flag */
(PID.TID 0000.0001)                   T
(PID.TID 0000.0001)     ;
(PID.TID 0000.0001) tempIsActiveTr = /* Temp. is a dynamically Active Tracer */
(PID.TID 0000.0001)                   T
(PID.TID 0000.0001)     ;
(PID.TID 0000.0001) saltStepping =  /* Salinity equation on/off flag */
(PID.TID 0000.0001)                   T
(PID.TID 0000.0001)     ;
(PID.TID 0000.0001) saltAdvection=  /* Salinity advection on/off flag */
(PID.TID 0000.0001)                   T
(PID.TID 0000.0001)     ;
(PID.TID 0000.0001) saltImplVertAdv = /* Sali. implicit vert. advection on/off */
(PID.TID 0000.0001)                   F
(PID.TID 0000.0001)     ;
(PID.TID 0000.0001) saltForcing  =  /* Salinity forcing on/off flag */
(PID.TID 0000.0001)                   T
(PID.TID 0000.0001)     ;
(PID.TID 0000.0001) saltIsActiveTr = /* Salt  is a dynamically Active Tracer */
(PID.TID 0000.0001)                   T
(PID.TID 0000.0001)     ;
(PID.TID 0000.0001)  readBinaryPrec = /* Precision used for reading binary files */
(PID.TID 0000.0001)                      32
(PID.TID 0000.0001)     ;
(PID.TID 0000.0001) writeBinaryPrec = /* Precision used for writing binary files */
(PID.TID 0000.0001)                      32
(PID.TID 0000.0001)     ;
(PID.TID 0000.0001)  globalFiles = /* write "global" (=not per tile) files */
(PID.TID 0000.0001)                   F
(PID.TID 0000.0001)     ;
(PID.TID 0000.0001)  useSingleCpuIO = /* only master MPI process does I/O */
(PID.TID 0000.0001)                   F
(PID.TID 0000.0001)     ;
(PID.TID 0000.0001) /* debLev[*]  : level of debug & auxiliary message printing */
(PID.TID 0000.0001) debLevZero =  0 ; /* level of disabled aux. msg printing */
(PID.TID 0000.0001)    debLevA =  1 ; /* level of minimum  aux. msg printing */
(PID.TID 0000.0001)    debLevB =  2 ; /* level of low aux. print (report read-file opening)*/
(PID.TID 0000.0001)    debLevC =  3 ; /* level of moderate debug prt (most pkgs debug msg) */
(PID.TID 0000.0001)    debLevD =  4 ; /* level of enhanced debug prt (add DEBUG_STATS prt) */
(PID.TID 0000.0001)    debLevE =  5 ; /* level of extensive debug printing */
(PID.TID 0000.0001) debugLevel =  /* select debug printing level */
(PID.TID 0000.0001)                       1
(PID.TID 0000.0001)     ;
(PID.TID 0000.0001) //
(PID.TID 0000.0001) // Elliptic solver(s) paramters ( PARM02 in namelist )
(PID.TID 0000.0001) //
(PID.TID 0000.0001) cg2dMaxIters =   /* Upper limit on 2d con. grad iterations  */
(PID.TID 0000.0001)                    1000
(PID.TID 0000.0001)     ;
(PID.TID 0000.0001) cg2dChkResFreq =   /* 2d con. grad convergence test frequency */
(PID.TID 0000.0001)                       1
(PID.TID 0000.0001)     ;
(PID.TID 0000.0001) cg2dTargetResidual =   /* 2d con. grad target residual  */
(PID.TID 0000.0001)                 1.000000000000000E-13
(PID.TID 0000.0001)     ;
(PID.TID 0000.0001) cg2dTargetResWunit =   /* CG2d target residual [W units] */
(PID.TID 0000.0001)                -1.000000000000000E+00
(PID.TID 0000.0001)     ;
(PID.TID 0000.0001) cg2dPreCondFreq =   /* Freq. for updating cg2d preconditioner */
(PID.TID 0000.0001)                       1
(PID.TID 0000.0001)     ;
(PID.TID 0000.0001) useSRCGSolver =  /* use single reduction CG solver(s) */
(PID.TID 0000.0001)                   F
(PID.TID 0000.0001)     ;
(PID.TID 0000.0001) printResidualFreq = /* Freq. for printing CG residual */
(PID.TID 0000.0001)                       0
(PID.TID 0000.0001)     ;
(PID.TID 0000.0001) //
(PID.TID 0000.0001) // Time stepping paramters ( PARM03 in namelist )
(PID.TID 0000.0001) //
(PID.TID 0000.0001) deltaTmom =   /* Momentum equation timestep ( s ) */
(PID.TID 0000.0001)                 3.600000000000000E+03
(PID.TID 0000.0001)     ;
(PID.TID 0000.0001) deltaTfreesurf = /* FreeSurface equation timestep ( s ) */
(PID.TID 0000.0001)                 3.600000000000000E+03
(PID.TID 0000.0001)     ;
(PID.TID 0000.0001) dTtracerLev =  /* Tracer equation timestep ( s ) */
(PID.TID 0000.0001)    23 @  3.600000000000000E+03              /* K =  1: 23 */
(PID.TID 0000.0001)     ;
(PID.TID 0000.0001) deltaTClock  =   /* Model clock timestep ( s ) */
(PID.TID 0000.0001)                 3.600000000000000E+03
(PID.TID 0000.0001)     ;
(PID.TID 0000.0001) cAdjFreq =   /* Convective adjustment interval ( s ) */
(PID.TID 0000.0001)                 0.000000000000000E+00
(PID.TID 0000.0001)     ;
(PID.TID 0000.0001) momForcingOutAB = /* =1: take Momentum Forcing out of Adams-Bash. stepping */
(PID.TID 0000.0001)                       0
(PID.TID 0000.0001)     ;
(PID.TID 0000.0001) tracForcingOutAB = /* =1: take T,S,pTr Forcing out of Adams-Bash. stepping */
(PID.TID 0000.0001)                       1
(PID.TID 0000.0001)     ;
(PID.TID 0000.0001) momDissip_In_AB = /* put Dissipation Tendency in Adams-Bash. stepping */
(PID.TID 0000.0001)                   T
(PID.TID 0000.0001)     ;
(PID.TID 0000.0001) doAB_onGtGs = /* apply AB on Tendencies (rather than on T,S)*/
(PID.TID 0000.0001)                   T
(PID.TID 0000.0001)     ;
(PID.TID 0000.0001) abEps =   /* Adams-Bashforth-2 stabilizing weight */
(PID.TID 0000.0001)                 1.000000000000000E-01
(PID.TID 0000.0001)     ;
(PID.TID 0000.0001) pickupStrictlyMatch= /* stop if pickup do not strictly match */
(PID.TID 0000.0001)                   T
(PID.TID 0000.0001)     ;
(PID.TID 0000.0001) nIter0   =   /* Run starting timestep number */
(PID.TID 0000.0001)                       0
(PID.TID 0000.0001)     ;
(PID.TID 0000.0001) nTimeSteps = /* Number of timesteps */
(PID.TID 0000.0001)                      10
(PID.TID 0000.0001)     ;
(PID.TID 0000.0001) nEndIter =   /* Run ending timestep number */
(PID.TID 0000.0001)                      10
(PID.TID 0000.0001)     ;
(PID.TID 0000.0001) baseTime =   /* Model base time ( s ) */
(PID.TID 0000.0001)                 0.000000000000000E+00
(PID.TID 0000.0001)     ;
(PID.TID 0000.0001) startTime =  /* Run start time ( s ) */
(PID.TID 0000.0001)                 0.000000000000000E+00
(PID.TID 0000.0001)     ;
(PID.TID 0000.0001) endTime  =   /* Integration ending time ( s ) */
(PID.TID 0000.0001)                 3.600000000000000E+04
(PID.TID 0000.0001)     ;
(PID.TID 0000.0001) pChkPtFreq = /* Permanent restart/pickup file interval ( s ) */
(PID.TID 0000.0001)                 0.000000000000000E+00
(PID.TID 0000.0001)     ;
(PID.TID 0000.0001) chkPtFreq  = /* Rolling restart/pickup file interval ( s ) */
(PID.TID 0000.0001)                 0.000000000000000E+00
(PID.TID 0000.0001)     ;
(PID.TID 0000.0001) pickup_write_mdsio =   /* Model IO flag. */
(PID.TID 0000.0001)                   T
(PID.TID 0000.0001)     ;
(PID.TID 0000.0001) pickup_read_mdsio =   /* Model IO flag. */
(PID.TID 0000.0001)                   T
(PID.TID 0000.0001)     ;
(PID.TID 0000.0001) pickup_write_immed =   /* Model IO flag. */
(PID.TID 0000.0001)                   F
(PID.TID 0000.0001)     ;
(PID.TID 0000.0001) writePickupAtEnd =   /* Model IO flag. */
(PID.TID 0000.0001)                   T
(PID.TID 0000.0001)     ;
(PID.TID 0000.0001) dumpFreq =   /* Model state write out interval ( s ). */
(PID.TID 0000.0001)                 0.000000000000000E+00
(PID.TID 0000.0001)     ;
(PID.TID 0000.0001) dumpInitAndLast= /* write out Initial & Last iter. model state */
(PID.TID 0000.0001)                   T
(PID.TID 0000.0001)     ;
(PID.TID 0000.0001) snapshot_mdsio =   /* Model IO flag. */
(PID.TID 0000.0001)                   T
(PID.TID 0000.0001)     ;
(PID.TID 0000.0001) monitorFreq =   /* Monitor output interval ( s ). */
(PID.TID 0000.0001)                 1.000000000000000E+00
(PID.TID 0000.0001)     ;
(PID.TID 0000.0001) monitorSelect = /* select group of variables to monitor */
(PID.TID 0000.0001)                       3
(PID.TID 0000.0001)     ;
(PID.TID 0000.0001) monitor_stdio =   /* Model IO flag. */
(PID.TID 0000.0001)                   T
(PID.TID 0000.0001)     ;
(PID.TID 0000.0001) externForcingPeriod =   /* forcing period (s) */
(PID.TID 0000.0001)                 0.000000000000000E+00
(PID.TID 0000.0001)     ;
(PID.TID 0000.0001) externForcingCycle =   /* period of the cyle (s). */
(PID.TID 0000.0001)                 0.000000000000000E+00
(PID.TID 0000.0001)     ;
(PID.TID 0000.0001) tauThetaClimRelax =   /* relaxation time scale (s) */
(PID.TID 0000.0001)                 0.000000000000000E+00
(PID.TID 0000.0001)     ;
(PID.TID 0000.0001) tauSaltClimRelax =   /* relaxation time scale (s) */
(PID.TID 0000.0001)                 0.000000000000000E+00
(PID.TID 0000.0001)     ;
(PID.TID 0000.0001) latBandClimRelax =   /* max. Lat. where relaxation */
(PID.TID 0000.0001)                 1.500000000000000E+04
(PID.TID 0000.0001)     ;
(PID.TID 0000.0001) //
(PID.TID 0000.0001) // Gridding paramters ( PARM04 in namelist )
(PID.TID 0000.0001) //
(PID.TID 0000.0001) usingCartesianGrid = /* Cartesian coordinates flag ( True/False ) */
(PID.TID 0000.0001)                   T
(PID.TID 0000.0001)     ;
(PID.TID 0000.0001) usingCylindricalGrid = /* Cylindrical coordinates flag ( True/False ) */
(PID.TID 0000.0001)                   F
(PID.TID 0000.0001)     ;
(PID.TID 0000.0001) usingSphericalPolarGrid = /* Spherical coordinates flag ( True/False ) */
(PID.TID 0000.0001)                   F
(PID.TID 0000.0001)     ;
(PID.TID 0000.0001) usingCurvilinearGrid = /* Curvilinear coordinates flag ( True/False ) */
(PID.TID 0000.0001)                   F
(PID.TID 0000.0001)     ;
(PID.TID 0000.0001) selectSigmaCoord = /* Hybrid-Sigma Vert. Coordinate option */
(PID.TID 0000.0001)                       0
(PID.TID 0000.0001)     ;
(PID.TID 0000.0001) Ro_SeaLevel = /* r(1) ( units of r ==  m ) */
(PID.TID 0000.0001)                 0.000000000000000E+00
(PID.TID 0000.0001)     ;
(PID.TID 0000.0001) rSigmaBnd = /* r/sigma transition ( units of r ==  m ) */
(PID.TID 0000.0001)                 1.234567000000000E+05
(PID.TID 0000.0001)     ;
(PID.TID 0000.0001) rkSign =   /* index orientation relative to vertical coordinate */
(PID.TID 0000.0001)                -1.000000000000000E+00
(PID.TID 0000.0001)     ;
(PID.TID 0000.0001) gravitySign = /* gravity orientation relative to vertical coordinate */
(PID.TID 0000.0001)                -1.000000000000000E+00
(PID.TID 0000.0001)     ;
(PID.TID 0000.0001) mass2rUnit = /* convert mass per unit area [kg/m2] to r-units [m] */
(PID.TID 0000.0001)                 9.737098344693282E-04
(PID.TID 0000.0001)     ;
(PID.TID 0000.0001) rUnit2mass = /* convert r-units [m] to mass per unit area [kg/m2] */
(PID.TID 0000.0001)                 1.027000000000000E+03
(PID.TID 0000.0001)     ;
(PID.TID 0000.0001) drC =   /* C spacing ( units of r ) */
(PID.TID 0000.0001)                 5.000000000000000E+00,      /* K =  1 */
(PID.TID 0000.0001)     6 @  1.000000000000000E+01,             /* K =  2:  7 */
(PID.TID 0000.0001)                 1.000500000000000E+01,      /* K =  8 */
(PID.TID 0000.0001)                 1.002000000000000E+01,      /* K =  9 */
(PID.TID 0000.0001)                 1.007000000000000E+01,      /* K = 10 */
(PID.TID 0000.0001)                 1.021500000000000E+01,      /* K = 11 */
(PID.TID 0000.0001)                 1.056000000000000E+01,      /* K = 12 */
(PID.TID 0000.0001)                 1.128000000000000E+01,      /* K = 13 */
(PID.TID 0000.0001)                 1.259000000000000E+01,      /* K = 14 */
(PID.TID 0000.0001)                 1.473000000000000E+01,      /* K = 15 */
(PID.TID 0000.0001)                 1.793000000000000E+01,      /* K = 16 */
(PID.TID 0000.0001)                 2.233500000000000E+01,      /* K = 17 */
(PID.TID 0000.0001)                 2.797500000000000E+01,      /* K = 18 */
(PID.TID 0000.0001)                 3.476000000000001E+01,      /* K = 19 */
(PID.TID 0000.0001)                 4.246000000000000E+01,      /* K = 20 */
(PID.TID 0000.0001)                 5.075000000000000E+01,      /* K = 21 */
(PID.TID 0000.0001)                 5.925000000000000E+01,      /* K = 22 */
(PID.TID 0000.0001)                 6.753999999999999E+01       /* K = 23 */
(PID.TID 0000.0001)     ;
(PID.TID 0000.0001) drF =   /* W spacing ( units of r ) */
(PID.TID 0000.0001)     7 @  1.000000000000000E+01,             /* K =  1:  7 */
(PID.TID 0000.0001)                 1.001000000000000E+01,      /* K =  8 */
(PID.TID 0000.0001)                 1.003000000000000E+01,      /* K =  9 */
(PID.TID 0000.0001)                 1.011000000000000E+01,      /* K = 10 */
(PID.TID 0000.0001)                 1.032000000000000E+01,      /* K = 11 */
(PID.TID 0000.0001)                 1.080000000000000E+01,      /* K = 12 */
(PID.TID 0000.0001)                 1.176000000000000E+01,      /* K = 13 */
(PID.TID 0000.0001)                 1.342000000000000E+01,      /* K = 14 */
(PID.TID 0000.0001)                 1.604000000000000E+01,      /* K = 15 */
(PID.TID 0000.0001)                 1.982000000000000E+01,      /* K = 16 */
(PID.TID 0000.0001)                 2.485000000000000E+01,      /* K = 17 */
(PID.TID 0000.0001)                 3.110000000000000E+01,      /* K = 18 */
(PID.TID 0000.0001)                 3.842000000000000E+01,      /* K = 19 */
(PID.TID 0000.0001)                 4.650000000000000E+01,      /* K = 20 */
(PID.TID 0000.0001)                 5.500000000000000E+01,      /* K = 21 */
(PID.TID 0000.0001)                 6.350000000000000E+01,      /* K = 22 */
(PID.TID 0000.0001)                 7.158000000000000E+01       /* K = 23 */
(PID.TID 0000.0001)     ;
(PID.TID 0000.0001) delX = /* U spacing ( m - cartesian, degrees - spherical ) */
(PID.TID 0000.0001)                 5.000000000000000E+03       /* I =  1 */
(PID.TID 0000.0001)     ;
(PID.TID 0000.0001) delY = /* V spacing ( m - cartesian, degrees - spherical ) */
(PID.TID 0000.0001)                 5.000000000000000E+03       /* J =  1 */
(PID.TID 0000.0001)     ;
(PID.TID 0000.0001) xgOrigin = /* X-axis origin of West  edge (cartesian: m, lat-lon: deg.) */
(PID.TID 0000.0001)                 0.000000000000000E+00
(PID.TID 0000.0001)     ;
(PID.TID 0000.0001) ygOrigin = /* Y-axis origin of South edge (cartesian: m, lat-lon: deg.) */
(PID.TID 0000.0001)                 0.000000000000000E+00
(PID.TID 0000.0001)     ;
(PID.TID 0000.0001) rSphere =  /* Radius ( ignored - cartesian, m - spherical ) */
(PID.TID 0000.0001)                 6.370000000000000E+06
(PID.TID 0000.0001)     ;
(PID.TID 0000.0001) deepAtmosphere = /* Deep/Shallow Atmosphere flag (True/False) */
(PID.TID 0000.0001)                   F
(PID.TID 0000.0001)     ;
(PID.TID 0000.0001) xC =  /* xC(:,1,:,1) : P-point X coord ( deg. or m if cartesian) */
(PID.TID 0000.0001)                 2.500000000000000E+03       /* I =  1 */
(PID.TID 0000.0001)     ;
(PID.TID 0000.0001) yC =  /* yC(1,:,1,:) : P-point Y coord ( deg. or m if cartesian) */
(PID.TID 0000.0001)                 2.500000000000000E+03       /* J =  1 */
(PID.TID 0000.0001)     ;
(PID.TID 0000.0001) rcoord = /* P-point R coordinate (  units of r ) */
(PID.TID 0000.0001)                -5.000000000000000E+00,      /* K =  1 */
(PID.TID 0000.0001)                -1.500000000000000E+01,      /* K =  2 */
(PID.TID 0000.0001)                -2.500000000000000E+01,      /* K =  3 */
(PID.TID 0000.0001)                -3.500000000000000E+01,      /* K =  4 */
(PID.TID 0000.0001)                -4.500000000000000E+01,      /* K =  5 */
(PID.TID 0000.0001)                -5.500000000000000E+01,      /* K =  6 */
(PID.TID 0000.0001)                -6.500000000000000E+01,      /* K =  7 */
(PID.TID 0000.0001)                -7.500500000000000E+01,      /* K =  8 */
(PID.TID 0000.0001)                -8.502499999999999E+01,      /* K =  9 */
(PID.TID 0000.0001)                -9.509500000000000E+01,      /* K = 10 */
(PID.TID 0000.0001)                -1.053100000000000E+02,      /* K = 11 */
(PID.TID 0000.0001)                -1.158700000000000E+02,      /* K = 12 */
(PID.TID 0000.0001)                -1.271500000000000E+02,      /* K = 13 */
(PID.TID 0000.0001)                -1.397400000000000E+02,      /* K = 14 */
(PID.TID 0000.0001)                -1.544700000000000E+02,      /* K = 15 */
(PID.TID 0000.0001)                -1.724000000000000E+02,      /* K = 16 */
(PID.TID 0000.0001)                -1.947350000000000E+02,      /* K = 17 */
(PID.TID 0000.0001)                -2.227100000000000E+02,      /* K = 18 */
(PID.TID 0000.0001)                -2.574700000000000E+02,      /* K = 19 */
(PID.TID 0000.0001)                -2.999300000000000E+02,      /* K = 20 */
(PID.TID 0000.0001)                -3.506800000000000E+02,      /* K = 21 */
(PID.TID 0000.0001)                -4.099300000000000E+02,      /* K = 22 */
(PID.TID 0000.0001)                -4.774700000000000E+02       /* K = 23 */
(PID.TID 0000.0001)     ;
(PID.TID 0000.0001) rF =   /* W-Interf. R coordinate (  units of r ) */
(PID.TID 0000.0001)                 0.000000000000000E+00,      /* K =  1 */
(PID.TID 0000.0001)                -1.000000000000000E+01,      /* K =  2 */
(PID.TID 0000.0001)                -2.000000000000000E+01,      /* K =  3 */
(PID.TID 0000.0001)                -3.000000000000000E+01,      /* K =  4 */
(PID.TID 0000.0001)                -4.000000000000000E+01,      /* K =  5 */
(PID.TID 0000.0001)                -5.000000000000000E+01,      /* K =  6 */
(PID.TID 0000.0001)                -6.000000000000000E+01,      /* K =  7 */
(PID.TID 0000.0001)                -7.000000000000000E+01,      /* K =  8 */
(PID.TID 0000.0001)                -8.001000000000001E+01,      /* K =  9 */
(PID.TID 0000.0001)                -9.004000000000001E+01,      /* K = 10 */
(PID.TID 0000.0001)                -1.001500000000000E+02,      /* K = 11 */
(PID.TID 0000.0001)                -1.104700000000000E+02,      /* K = 12 */
(PID.TID 0000.0001)                -1.212700000000000E+02,      /* K = 13 */
(PID.TID 0000.0001)                -1.330300000000000E+02,      /* K = 14 */
(PID.TID 0000.0001)                -1.464500000000000E+02,      /* K = 15 */
(PID.TID 0000.0001)                -1.624900000000000E+02,      /* K = 16 */
(PID.TID 0000.0001)                -1.823100000000000E+02,      /* K = 17 */
(PID.TID 0000.0001)                -2.071600000000000E+02,      /* K = 18 */
(PID.TID 0000.0001)                -2.382600000000000E+02,      /* K = 19 */
(PID.TID 0000.0001)                -2.766799999999999E+02,      /* K = 20 */
(PID.TID 0000.0001)                -3.231799999999999E+02,      /* K = 21 */
(PID.TID 0000.0001)                -3.781799999999999E+02,      /* K = 22 */
(PID.TID 0000.0001)                -4.416799999999999E+02,      /* K = 23 */
(PID.TID 0000.0001)                -5.132600000000000E+02       /* K = 24 */
(PID.TID 0000.0001)     ;
(PID.TID 0000.0001) deepFacC = /* deep-model grid factor @ cell-Center (-) */
(PID.TID 0000.0001)    23 @  1.000000000000000E+00              /* K =  1: 23 */
(PID.TID 0000.0001)     ;
(PID.TID 0000.0001) deepFacF = /* deep-model grid factor @ W-Interface (-) */
(PID.TID 0000.0001)    24 @  1.000000000000000E+00              /* K =  1: 24 */
(PID.TID 0000.0001)     ;
(PID.TID 0000.0001) rVel2wUnit = /* convert units: rVel -> wSpeed (=1 if z-coord)*/
(PID.TID 0000.0001)    24 @  1.000000000000000E+00              /* K =  1: 24 */
(PID.TID 0000.0001)     ;
(PID.TID 0000.0001) wUnit2rVel = /* convert units: wSpeed -> rVel (=1 if z-coord)*/
(PID.TID 0000.0001)    24 @  1.000000000000000E+00              /* K =  1: 24 */
(PID.TID 0000.0001)     ;
(PID.TID 0000.0001) dBdrRef = /* Vertical grad. of reference buoyancy [(m/s/r)^2] */
(PID.TID 0000.0001)                 0.000000000000000E+00,      /* K =  1 */
(PID.TID 0000.0001)                 8.400626767775133E-08,      /* K =  2 */
(PID.TID 0000.0001)                 4.726438194253301E-07,      /* K =  3 */
(PID.TID 0000.0001)                 4.585615465197204E-05,      /* K =  4 */
(PID.TID 0000.0001)                 1.238246572701474E-03,      /* K =  5 */
(PID.TID 0000.0001)                 6.951801729149382E-04,      /* K =  6 */
(PID.TID 0000.0001)                 2.418966274333319E-04,      /* K =  7 */
(PID.TID 0000.0001)                 1.638092340319407E-04,      /* K =  8 */
(PID.TID 0000.0001)                 1.545442190763079E-04,      /* K =  9 */
(PID.TID 0000.0001)                 7.981944964515872E-05,      /* K = 10 */
(PID.TID 0000.0001)                 7.863895531004773E-05,      /* K = 11 */
(PID.TID 0000.0001)                 1.467275808873821E-04,      /* K = 12 */
(PID.TID 0000.0001)                 7.125354478079847E-05,      /* K = 13 */
(PID.TID 0000.0001)                 6.154857046087147E-05,      /* K = 14 */
(PID.TID 0000.0001)                 1.052015240405023E-04,      /* K = 15 */
(PID.TID 0000.0001)                 1.296240024880414E-04,      /* K = 16 */
(PID.TID 0000.0001)                 1.356071782775411E-04,      /* K = 17 */
(PID.TID 0000.0001)                 1.048037635740844E-04,      /* K = 18 */
(PID.TID 0000.0001)                 5.815235710133455E-05,      /* K = 19 */
(PID.TID 0000.0001)                 2.944026976867708E-05,      /* K = 20 */
(PID.TID 0000.0001)                 1.131184781779247E-05,      /* K = 21 */
(PID.TID 0000.0001)     2 @  0.000000000000000E+00              /* K = 22: 23 */
(PID.TID 0000.0001)     ;
(PID.TID 0000.0001) rotateGrid = /* use rotated grid ( True/False ) */
(PID.TID 0000.0001)                   F
(PID.TID 0000.0001)     ;
(PID.TID 0000.0001) phiEuler = /* Euler angle, rotation about original z-coordinate [rad] */
(PID.TID 0000.0001)                 0.000000000000000E+00
(PID.TID 0000.0001)     ;
(PID.TID 0000.0001) thetaEuler = /* Euler angle, rotation about new x-coordinate [rad] */
(PID.TID 0000.0001)                 0.000000000000000E+00
(PID.TID 0000.0001)     ;
(PID.TID 0000.0001) psiEuler = /* Euler angle, rotation about new z-coordinate [rad] */
(PID.TID 0000.0001)                 0.000000000000000E+00
(PID.TID 0000.0001)     ;
(PID.TID 0000.0001) dxF =  /* dxF(:,1,:,1) ( units: m ) */
(PID.TID 0000.0001)                 5.000000000000000E+03       /* I =  1 */
(PID.TID 0000.0001)     ;
(PID.TID 0000.0001) dxF =  /* dxF(1,:,1,:) ( units: m ) */
(PID.TID 0000.0001)                 5.000000000000000E+03       /* J =  1 */
(PID.TID 0000.0001)     ;
(PID.TID 0000.0001) dyF =  /* dyF(:,1,:,1) ( units: m ) */
(PID.TID 0000.0001)                 5.000000000000000E+03       /* I =  1 */
(PID.TID 0000.0001)     ;
(PID.TID 0000.0001) dyF =  /* dyF(1,:,1,:) ( units: m ) */
(PID.TID 0000.0001)                 5.000000000000000E+03       /* J =  1 */
(PID.TID 0000.0001)     ;
(PID.TID 0000.0001) dxG =  /* dxG(:,1,:,1) ( units: m ) */
(PID.TID 0000.0001)                 5.000000000000000E+03       /* I =  1 */
(PID.TID 0000.0001)     ;
(PID.TID 0000.0001) dxG =  /* dxG(1,:,1,:) ( units: m ) */
(PID.TID 0000.0001)                 5.000000000000000E+03       /* J =  1 */
(PID.TID 0000.0001)     ;
(PID.TID 0000.0001) dyG =  /* dyG(:,1,:,1) ( units: m ) */
(PID.TID 0000.0001)                 5.000000000000000E+03       /* I =  1 */
(PID.TID 0000.0001)     ;
(PID.TID 0000.0001) dyG =  /* dyG(1,:,1,:) ( units: m ) */
(PID.TID 0000.0001)                 5.000000000000000E+03       /* J =  1 */
(PID.TID 0000.0001)     ;
(PID.TID 0000.0001) dxC =  /* dxC(:,1,:,1) ( units: m ) */
(PID.TID 0000.0001)                 5.000000000000000E+03       /* I =  1 */
(PID.TID 0000.0001)     ;
(PID.TID 0000.0001) dxC =  /* dxC(1,:,1,:) ( units: m ) */
(PID.TID 0000.0001)                 5.000000000000000E+03       /* J =  1 */
(PID.TID 0000.0001)     ;
(PID.TID 0000.0001) dyC =  /* dyC(:,1,:,1) ( units: m ) */
(PID.TID 0000.0001)                 5.000000000000000E+03       /* I =  1 */
(PID.TID 0000.0001)     ;
(PID.TID 0000.0001) dyC =  /* dyC(1,:,1,:) ( units: m ) */
(PID.TID 0000.0001)                 5.000000000000000E+03       /* J =  1 */
(PID.TID 0000.0001)     ;
(PID.TID 0000.0001) dxV =  /* dxV(:,1,:,1) ( units: m ) */
(PID.TID 0000.0001)                 5.000000000000000E+03       /* I =  1 */
(PID.TID 0000.0001)     ;
(PID.TID 0000.0001) dxV =  /* dxV(1,:,1,:) ( units: m ) */
(PID.TID 0000.0001)                 5.000000000000000E+03       /* J =  1 */
(PID.TID 0000.0001)     ;
(PID.TID 0000.0001) dyU =  /* dyU(:,1,:,1) ( units: m ) */
(PID.TID 0000.0001)                 5.000000000000000E+03       /* I =  1 */
(PID.TID 0000.0001)     ;
(PID.TID 0000.0001) dyU =  /* dyU(1,:,1,:) ( units: m ) */
(PID.TID 0000.0001)                 5.000000000000000E+03       /* J =  1 */
(PID.TID 0000.0001)     ;
(PID.TID 0000.0001) rA  =  /* rA (:,1,:,1) ( units: m^2 ) */
(PID.TID 0000.0001)                 2.500000000000000E+07       /* I =  1 */
(PID.TID 0000.0001)     ;
(PID.TID 0000.0001) rA  =  /* rA (1,:,1,:) ( units: m^2 ) */
(PID.TID 0000.0001)                 2.500000000000000E+07       /* J =  1 */
(PID.TID 0000.0001)     ;
(PID.TID 0000.0001) rAw =  /* rAw(:,1,:,1) ( units: m^2 ) */
(PID.TID 0000.0001)                 2.500000000000000E+07       /* I =  1 */
(PID.TID 0000.0001)     ;
(PID.TID 0000.0001) rAw =  /* rAw(1,:,1,:) ( units: m^2 ) */
(PID.TID 0000.0001)                 2.500000000000000E+07       /* J =  1 */
(PID.TID 0000.0001)     ;
(PID.TID 0000.0001) rAs =  /* rAs(:,1,:,1) ( units: m^2 ) */
(PID.TID 0000.0001)                 2.500000000000000E+07       /* I =  1 */
(PID.TID 0000.0001)     ;
(PID.TID 0000.0001) rAs =  /* rAs(1,:,1,:) ( units: m^2 ) */
(PID.TID 0000.0001)                 2.500000000000000E+07       /* J =  1 */
(PID.TID 0000.0001)     ;
(PID.TID 0000.0001) globalArea = /* Integrated horizontal Area (m^2) */
(PID.TID 0000.0001)                 2.500000000000000E+07
(PID.TID 0000.0001)     ;
(PID.TID 0000.0001) // =======================================================
(PID.TID 0000.0001) // End of Model config. summary
(PID.TID 0000.0001) // =======================================================
(PID.TID 0000.0001) 
(PID.TID 0000.0001) == Packages configuration : Check & print summary ==
(PID.TID 0000.0001) 
(PID.TID 0000.0001) KPP_CHECK: #define ALLOW_KPP
(PID.TID 0000.0001) SEAICE_CHECK: #define ALLOW_SEAICE
(PID.TID 0000.0001) CTRL_CHECK: ctrl package
(PID.TID 0000.0001) COST_CHECK: cost package
(PID.TID 0000.0001) GRDCHK_CHECK: grdchk package
(PID.TID 0000.0001) GAD_CHECK: #define ALLOW_GENERIC_ADVDIFF
(PID.TID 0000.0001) // =======================================================
(PID.TID 0000.0001) // CONFIG_CHECK : Normal End
(PID.TID 0000.0001) // =======================================================
(PID.TID 0000.0001) 
(PID.TID 0000.0001) 
(PID.TID 0000.0001)  cal_TimeStamp: iter =          0 time =  0.00000000E+00
(PID.TID 0000.0001)                 date =   19790101           0
(PID.TID 0000.0001) 
(PID.TID 0000.0001) INI_CG2D: CG2D normalisation factor =  1.9483302809492266E-03
(PID.TID 0000.0001) 
(PID.TID 0000.0001) Start initial hydrostatic pressure computation
(PID.TID 0000.0001) Pressure is predetermined for buoyancyRelation OCEANIC
(PID.TID 0000.0001) 
(PID.TID 0000.0001) // =======================================================
(PID.TID 0000.0001) // Model current state
(PID.TID 0000.0001) // =======================================================
(PID.TID 0000.0001) 
(PID.TID 0000.0001) // =======================================================
(PID.TID 0000.0001) // Begin MONITOR dynamic field statistics
(PID.TID 0000.0001) // =======================================================
(PID.TID 0000.0001) %MON g__time_tsnumber             =                     0
(PID.TID 0000.0001) %MON g__time_secondsf             =   0.0000000000000E+00
(PID.TID 0000.0001) %MON g__dynstat_g_eta_max         =   0.0000000000000E+00
(PID.TID 0000.0001) %MON g__dynstat_g_eta_min         =   0.0000000000000E+00
(PID.TID 0000.0001) %MON g__dynstat_g_eta_mean        =   0.0000000000000E+00
(PID.TID 0000.0001) %MON g__dynstat_g_eta_sd          =   0.0000000000000E+00
(PID.TID 0000.0001) %MON g__dynstat_g_eta_del2        =   0.0000000000000E+00
(PID.TID 0000.0001) %MON g__dynstat_g_uvel_max        =   0.0000000000000E+00
(PID.TID 0000.0001) %MON g__dynstat_g_uvel_min        =   0.0000000000000E+00
(PID.TID 0000.0001) %MON g__dynstat_g_uvel_mean       =   0.0000000000000E+00
(PID.TID 0000.0001) %MON g__dynstat_g_uvel_sd         =   0.0000000000000E+00
(PID.TID 0000.0001) %MON g__dynstat_g_uvel_del2       =   0.0000000000000E+00
(PID.TID 0000.0001) %MON g__dynstat_g_vvel_max        =   0.0000000000000E+00
(PID.TID 0000.0001) %MON g__dynstat_g_vvel_min        =   0.0000000000000E+00
(PID.TID 0000.0001) %MON g__dynstat_g_vvel_mean       =   0.0000000000000E+00
(PID.TID 0000.0001) %MON g__dynstat_g_vvel_sd         =   0.0000000000000E+00
(PID.TID 0000.0001) %MON g__dynstat_g_vvel_del2       =   0.0000000000000E+00
(PID.TID 0000.0001) %MON g__dynstat_g_wvel_max        =   0.0000000000000E+00
(PID.TID 0000.0001) %MON g__dynstat_g_wvel_min        =   0.0000000000000E+00
(PID.TID 0000.0001) %MON g__dynstat_g_wvel_mean       =   0.0000000000000E+00
(PID.TID 0000.0001) %MON g__dynstat_g_wvel_sd         =   0.0000000000000E+00
(PID.TID 0000.0001) %MON g__dynstat_g_wvel_del2       =   0.0000000000000E+00
(PID.TID 0000.0001) %MON g__dynstat_g_theta_max       =   0.0000000000000E+00
(PID.TID 0000.0001) %MON g__dynstat_g_theta_min       =   0.0000000000000E+00
(PID.TID 0000.0001) %MON g__dynstat_g_theta_mean      =   0.0000000000000E+00
(PID.TID 0000.0001) %MON g__dynstat_g_theta_sd        =   0.0000000000000E+00
(PID.TID 0000.0001) %MON g__dynstat_g_theta_del2      =   0.0000000000000E+00
(PID.TID 0000.0001) %MON g__dynstat_g_salt_max        =   0.0000000000000E+00
(PID.TID 0000.0001) %MON g__dynstat_g_salt_min        =   0.0000000000000E+00
(PID.TID 0000.0001) %MON g__dynstat_g_salt_mean       =   0.0000000000000E+00
(PID.TID 0000.0001) %MON g__dynstat_g_salt_sd         =   0.0000000000000E+00
(PID.TID 0000.0001) %MON g__dynstat_g_salt_del2       =   0.0000000000000E+00
(PID.TID 0000.0001) %MON g__dynstat_g_sst_max         =   0.0000000000000E+00
(PID.TID 0000.0001) %MON g__dynstat_g_sst_min         =   0.0000000000000E+00
(PID.TID 0000.0001) %MON g__dynstat_g_sst_mean        =   0.0000000000000E+00
(PID.TID 0000.0001) %MON g__dynstat_g_sst_sd          =   0.0000000000000E+00
(PID.TID 0000.0001) %MON g__dynstat_g_sst_del2        =   0.0000000000000E+00
(PID.TID 0000.0001) %MON g__dynstat_g_sss_max         =   0.0000000000000E+00
(PID.TID 0000.0001) %MON g__dynstat_g_sss_min         =   0.0000000000000E+00
(PID.TID 0000.0001) %MON g__dynstat_g_sss_mean        =   0.0000000000000E+00
(PID.TID 0000.0001) %MON g__dynstat_g_sss_sd          =   0.0000000000000E+00
(PID.TID 0000.0001) %MON g__dynstat_g_sss_del2        =   0.0000000000000E+00
(PID.TID 0000.0001) %MON g__forcing_g_qnet_max        =   0.0000000000000E+00
(PID.TID 0000.0001) %MON g__forcing_g_qnet_min        =   0.0000000000000E+00
(PID.TID 0000.0001) %MON g__forcing_g_qnet_mean       =   0.0000000000000E+00
(PID.TID 0000.0001) %MON g__forcing_g_qnet_sd         =   0.0000000000000E+00
(PID.TID 0000.0001) %MON g__forcing_g_qnet_del2       =   0.0000000000000E+00
(PID.TID 0000.0001) %MON g__forcing_g_qsw_max         =   0.0000000000000E+00
(PID.TID 0000.0001) %MON g__forcing_g_qsw_min         =   0.0000000000000E+00
(PID.TID 0000.0001) %MON g__forcing_g_qsw_mean        =   0.0000000000000E+00
(PID.TID 0000.0001) %MON g__forcing_g_qsw_sd          =   0.0000000000000E+00
(PID.TID 0000.0001) %MON g__forcing_g_qsw_del2        =   0.0000000000000E+00
(PID.TID 0000.0001) %MON g__forcing_g_empmr_max       =   0.0000000000000E+00
(PID.TID 0000.0001) %MON g__forcing_g_empmr_min       =   0.0000000000000E+00
(PID.TID 0000.0001) %MON g__forcing_g_empmr_mean      =   0.0000000000000E+00
(PID.TID 0000.0001) %MON g__forcing_g_empmr_sd        =   0.0000000000000E+00
(PID.TID 0000.0001) %MON g__forcing_g_empmr_del2      =   0.0000000000000E+00
(PID.TID 0000.0001) %MON g__forcing_g_fu_max          =   0.0000000000000E+00
(PID.TID 0000.0001) %MON g__forcing_g_fu_min          =   0.0000000000000E+00
(PID.TID 0000.0001) %MON g__forcing_g_fu_mean         =   0.0000000000000E+00
(PID.TID 0000.0001) %MON g__forcing_g_fu_sd           =   0.0000000000000E+00
(PID.TID 0000.0001) %MON g__forcing_g_fu_del2         =   0.0000000000000E+00
(PID.TID 0000.0001) %MON g__forcing_g_fv_max          =   0.0000000000000E+00
(PID.TID 0000.0001) %MON g__forcing_g_fv_min          =   0.0000000000000E+00
(PID.TID 0000.0001) %MON g__forcing_g_fv_mean         =   0.0000000000000E+00
(PID.TID 0000.0001) %MON g__forcing_g_fv_sd           =   0.0000000000000E+00
(PID.TID 0000.0001) %MON g__forcing_g_fv_del2         =   0.0000000000000E+00
(PID.TID 0000.0001) %MON g__g_vcfl_g_uvel_max         =   0.0000000000000E+00
(PID.TID 0000.0001) %MON g__g_vcfl_g_vvel_max         =   0.0000000000000E+00
(PID.TID 0000.0001) %MON g__g_vcfl_g_wvel_max         =   0.0000000000000E+00
(PID.TID 0000.0001) %MON g__g_vcfl_g_W_hf_max         =   0.0000000000000E+00
(PID.TID 0000.0001) // =======================================================
(PID.TID 0000.0001) // End MONITOR dynamic field statistics
(PID.TID 0000.0001) // =======================================================
(PID.TID 0000.0001) // =======================================================
(PID.TID 0000.0001) // Begin MONITOR SEAICE statistics
(PID.TID 0000.0001) // =======================================================
(PID.TID 0000.0001) %MON seaice_tsnumber              =                     0
(PID.TID 0000.0001) %MON seaice_time_sec              =   0.0000000000000E+00
(PID.TID 0000.0001) %MON seaice_uice_max              =   0.0000000000000E+00
(PID.TID 0000.0001) %MON seaice_uice_min              =   0.0000000000000E+00
(PID.TID 0000.0001) %MON seaice_uice_mean             =   0.0000000000000E+00
(PID.TID 0000.0001) %MON seaice_uice_sd               =   0.0000000000000E+00
(PID.TID 0000.0001) %MON seaice_uice_del2             =   0.0000000000000E+00
(PID.TID 0000.0001) %MON seaice_vice_max              =   0.0000000000000E+00
(PID.TID 0000.0001) %MON seaice_vice_min              =   0.0000000000000E+00
(PID.TID 0000.0001) %MON seaice_vice_mean             =   0.0000000000000E+00
(PID.TID 0000.0001) %MON seaice_vice_sd               =   0.0000000000000E+00
(PID.TID 0000.0001) %MON seaice_vice_del2             =   0.0000000000000E+00
(PID.TID 0000.0001) %MON seaice_area_max              =   0.0000000000000E+00
(PID.TID 0000.0001) %MON seaice_area_min              =   0.0000000000000E+00
(PID.TID 0000.0001) %MON seaice_area_mean             =   0.0000000000000E+00
(PID.TID 0000.0001) %MON seaice_area_sd               =   0.0000000000000E+00
(PID.TID 0000.0001) %MON seaice_area_del2             =   0.0000000000000E+00
(PID.TID 0000.0001) %MON seaice_heff_max              =   0.0000000000000E+00
(PID.TID 0000.0001) %MON seaice_heff_min              =   0.0000000000000E+00
(PID.TID 0000.0001) %MON seaice_heff_mean             =   0.0000000000000E+00
(PID.TID 0000.0001) %MON seaice_heff_sd               =   0.0000000000000E+00
(PID.TID 0000.0001) %MON seaice_heff_del2             =   0.0000000000000E+00
(PID.TID 0000.0001) %MON seaice_hsnow_max             =   0.0000000000000E+00
(PID.TID 0000.0001) %MON seaice_hsnow_min             =   0.0000000000000E+00
(PID.TID 0000.0001) %MON seaice_hsnow_mean            =   0.0000000000000E+00
(PID.TID 0000.0001) %MON seaice_hsnow_sd              =   0.0000000000000E+00
(PID.TID 0000.0001) %MON seaice_hsnow_del2            =   0.0000000000000E+00
(PID.TID 0000.0001) %MON seaice_hsalt_max             =   0.0000000000000E+00
(PID.TID 0000.0001) %MON seaice_hsalt_min             =   0.0000000000000E+00
(PID.TID 0000.0001) %MON seaice_hsalt_mean            =   0.0000000000000E+00
(PID.TID 0000.0001) %MON seaice_hsalt_sd              =   0.0000000000000E+00
(PID.TID 0000.0001) %MON seaice_hsalt_del2            =   0.0000000000000E+00
(PID.TID 0000.0001) // =======================================================
(PID.TID 0000.0001) // End MONITOR SEAICE statistics
(PID.TID 0000.0001) // =======================================================
 myIter=            0
(PID.TID 0000.0001) // Model state written, timestep         0
(PID.TID 0000.0001) 
 cg2d: Sum(rhs),rhsMax =   0.00000000000000E+00  0.00000000000000E+00
 cg2d: Sum(rhs),rhsMax =   1.00000000000000E+00  5.58645366562891E-06
(PID.TID 0000.0001) // =======================================================
(PID.TID 0000.0001) // Begin MONITOR dynamic field statistics
(PID.TID 0000.0001) // =======================================================
(PID.TID 0000.0001) %MON g__time_tsnumber             =                     1
(PID.TID 0000.0001) %MON g__time_secondsf             =   3.6000000000000E+03
(PID.TID 0000.0001) %MON g__dynstat_g_eta_max         =   0.0000000000000E+00
(PID.TID 0000.0001) %MON g__dynstat_g_eta_min         =   0.0000000000000E+00
(PID.TID 0000.0001) %MON g__dynstat_g_eta_mean        =   0.0000000000000E+00
(PID.TID 0000.0001) %MON g__dynstat_g_eta_sd          =   0.0000000000000E+00
(PID.TID 0000.0001) %MON g__dynstat_g_eta_del2        =   0.0000000000000E+00
(PID.TID 0000.0001) %MON g__dynstat_g_uvel_max        =   0.0000000000000E+00
(PID.TID 0000.0001) %MON g__dynstat_g_uvel_min        =   0.0000000000000E+00
(PID.TID 0000.0001) %MON g__dynstat_g_uvel_mean       =   0.0000000000000E+00
(PID.TID 0000.0001) %MON g__dynstat_g_uvel_sd         =   0.0000000000000E+00
(PID.TID 0000.0001) %MON g__dynstat_g_uvel_del2       =   0.0000000000000E+00
(PID.TID 0000.0001) %MON g__dynstat_g_vvel_max        =   0.0000000000000E+00
(PID.TID 0000.0001) %MON g__dynstat_g_vvel_min        =   0.0000000000000E+00
(PID.TID 0000.0001) %MON g__dynstat_g_vvel_mean       =   0.0000000000000E+00
(PID.TID 0000.0001) %MON g__dynstat_g_vvel_sd         =   0.0000000000000E+00
(PID.TID 0000.0001) %MON g__dynstat_g_vvel_del2       =   0.0000000000000E+00
(PID.TID 0000.0001) %MON g__dynstat_g_wvel_max        =   0.0000000000000E+00
(PID.TID 0000.0001) %MON g__dynstat_g_wvel_min        =   0.0000000000000E+00
(PID.TID 0000.0001) %MON g__dynstat_g_wvel_mean       =   0.0000000000000E+00
(PID.TID 0000.0001) %MON g__dynstat_g_wvel_sd         =   0.0000000000000E+00
(PID.TID 0000.0001) %MON g__dynstat_g_wvel_del2       =   0.0000000000000E+00
(PID.TID 0000.0001) %MON g__dynstat_g_theta_max       =   0.0000000000000E+00
(PID.TID 0000.0001) %MON g__dynstat_g_theta_min       =   0.0000000000000E+00
(PID.TID 0000.0001) %MON g__dynstat_g_theta_mean      =   0.0000000000000E+00
(PID.TID 0000.0001) %MON g__dynstat_g_theta_sd        =   0.0000000000000E+00
(PID.TID 0000.0001) %MON g__dynstat_g_theta_del2      =   0.0000000000000E+00
(PID.TID 0000.0001) %MON g__dynstat_g_salt_max        =   0.0000000000000E+00
(PID.TID 0000.0001) %MON g__dynstat_g_salt_min        =   0.0000000000000E+00
(PID.TID 0000.0001) %MON g__dynstat_g_salt_mean       =   0.0000000000000E+00
(PID.TID 0000.0001) %MON g__dynstat_g_salt_sd         =   0.0000000000000E+00
(PID.TID 0000.0001) %MON g__dynstat_g_salt_del2       =   0.0000000000000E+00
(PID.TID 0000.0001) %MON g__dynstat_g_sst_max         =   0.0000000000000E+00
(PID.TID 0000.0001) %MON g__dynstat_g_sst_min         =   0.0000000000000E+00
(PID.TID 0000.0001) %MON g__dynstat_g_sst_mean        =   0.0000000000000E+00
(PID.TID 0000.0001) %MON g__dynstat_g_sst_sd          =   0.0000000000000E+00
(PID.TID 0000.0001) %MON g__dynstat_g_sst_del2        =   0.0000000000000E+00
(PID.TID 0000.0001) %MON g__dynstat_g_sss_max         =   0.0000000000000E+00
(PID.TID 0000.0001) %MON g__dynstat_g_sss_min         =   0.0000000000000E+00
(PID.TID 0000.0001) %MON g__dynstat_g_sss_mean        =   0.0000000000000E+00
(PID.TID 0000.0001) %MON g__dynstat_g_sss_sd          =   0.0000000000000E+00
(PID.TID 0000.0001) %MON g__dynstat_g_sss_del2        =   0.0000000000000E+00
(PID.TID 0000.0001) %MON g__forcing_g_qnet_max        =   0.0000000000000E+00
(PID.TID 0000.0001) %MON g__forcing_g_qnet_min        =   0.0000000000000E+00
(PID.TID 0000.0001) %MON g__forcing_g_qnet_mean       =   0.0000000000000E+00
(PID.TID 0000.0001) %MON g__forcing_g_qnet_sd         =   0.0000000000000E+00
(PID.TID 0000.0001) %MON g__forcing_g_qnet_del2       =   0.0000000000000E+00
(PID.TID 0000.0001) %MON g__forcing_g_qsw_max         =   0.0000000000000E+00
(PID.TID 0000.0001) %MON g__forcing_g_qsw_min         =   0.0000000000000E+00
(PID.TID 0000.0001) %MON g__forcing_g_qsw_mean        =   0.0000000000000E+00
(PID.TID 0000.0001) %MON g__forcing_g_qsw_sd          =   0.0000000000000E+00
(PID.TID 0000.0001) %MON g__forcing_g_qsw_del2        =   0.0000000000000E+00
(PID.TID 0000.0001) %MON g__forcing_g_empmr_max       =   0.0000000000000E+00
(PID.TID 0000.0001) %MON g__forcing_g_empmr_min       =   0.0000000000000E+00
(PID.TID 0000.0001) %MON g__forcing_g_empmr_mean      =   0.0000000000000E+00
(PID.TID 0000.0001) %MON g__forcing_g_empmr_sd        =   0.0000000000000E+00
(PID.TID 0000.0001) %MON g__forcing_g_empmr_del2      =   0.0000000000000E+00
(PID.TID 0000.0001) %MON g__forcing_g_fu_max          =   0.0000000000000E+00
(PID.TID 0000.0001) %MON g__forcing_g_fu_min          =   0.0000000000000E+00
(PID.TID 0000.0001) %MON g__forcing_g_fu_mean         =   0.0000000000000E+00
(PID.TID 0000.0001) %MON g__forcing_g_fu_sd           =   0.0000000000000E+00
(PID.TID 0000.0001) %MON g__forcing_g_fu_del2         =   0.0000000000000E+00
(PID.TID 0000.0001) %MON g__forcing_g_fv_max          =   0.0000000000000E+00
(PID.TID 0000.0001) %MON g__forcing_g_fv_min          =   0.0000000000000E+00
(PID.TID 0000.0001) %MON g__forcing_g_fv_mean         =   0.0000000000000E+00
(PID.TID 0000.0001) %MON g__forcing_g_fv_sd           =   0.0000000000000E+00
(PID.TID 0000.0001) %MON g__forcing_g_fv_del2         =   0.0000000000000E+00
(PID.TID 0000.0001) %MON g__g_vcfl_g_uvel_max         =   0.0000000000000E+00
(PID.TID 0000.0001) %MON g__g_vcfl_g_vvel_max         =   0.0000000000000E+00
(PID.TID 0000.0001) %MON g__g_vcfl_g_wvel_max         =   0.0000000000000E+00
(PID.TID 0000.0001) %MON g__g_vcfl_g_W_hf_max         =   0.0000000000000E+00
(PID.TID 0000.0001) // =======================================================
(PID.TID 0000.0001) // End MONITOR dynamic field statistics
(PID.TID 0000.0001) // =======================================================
(PID.TID 0000.0001) // =======================================================
(PID.TID 0000.0001) // Begin MONITOR SEAICE statistics
(PID.TID 0000.0001) // =======================================================
(PID.TID 0000.0001) %MON seaice_tsnumber              =                     1
(PID.TID 0000.0001) %MON seaice_time_sec              =   3.6000000000000E+03
(PID.TID 0000.0001) %MON seaice_uice_max              =   0.0000000000000E+00
(PID.TID 0000.0001) %MON seaice_uice_min              =   0.0000000000000E+00
(PID.TID 0000.0001) %MON seaice_uice_mean             =   0.0000000000000E+00
(PID.TID 0000.0001) %MON seaice_uice_sd               =   0.0000000000000E+00
(PID.TID 0000.0001) %MON seaice_uice_del2             =   0.0000000000000E+00
(PID.TID 0000.0001) %MON seaice_vice_max              =   0.0000000000000E+00
(PID.TID 0000.0001) %MON seaice_vice_min              =   0.0000000000000E+00
(PID.TID 0000.0001) %MON seaice_vice_mean             =   0.0000000000000E+00
(PID.TID 0000.0001) %MON seaice_vice_sd               =   0.0000000000000E+00
(PID.TID 0000.0001) %MON seaice_vice_del2             =   0.0000000000000E+00
(PID.TID 0000.0001) %MON seaice_area_max              =   3.1916247108025E-03
(PID.TID 0000.0001) %MON seaice_area_min              =   3.1916247108025E-03
(PID.TID 0000.0001) %MON seaice_area_mean             =   3.1916247108025E-03
(PID.TID 0000.0001) %MON seaice_area_sd               =   0.0000000000000E+00
(PID.TID 0000.0001) %MON seaice_area_del2             =   0.0000000000000E+00
(PID.TID 0000.0001) %MON seaice_heff_max              =   1.5958123554013E-03
(PID.TID 0000.0001) %MON seaice_heff_min              =   1.5958123554013E-03
(PID.TID 0000.0001) %MON seaice_heff_mean             =   1.5958123554013E-03
(PID.TID 0000.0001) %MON seaice_heff_sd               =   0.0000000000000E+00
(PID.TID 0000.0001) %MON seaice_heff_del2             =   0.0000000000000E+00
(PID.TID 0000.0001) %MON seaice_hsnow_max             =   0.0000000000000E+00
(PID.TID 0000.0001) %MON seaice_hsnow_min             =   0.0000000000000E+00
(PID.TID 0000.0001) %MON seaice_hsnow_mean            =   0.0000000000000E+00
(PID.TID 0000.0001) %MON seaice_hsnow_sd              =   0.0000000000000E+00
(PID.TID 0000.0001) %MON seaice_hsnow_del2            =   0.0000000000000E+00
(PID.TID 0000.0001) %MON seaice_hsalt_max             =   1.2637488106219E+01
(PID.TID 0000.0001) %MON seaice_hsalt_min             =   1.2637488106219E+01
(PID.TID 0000.0001) %MON seaice_hsalt_mean            =   1.2637488106219E+01
(PID.TID 0000.0001) %MON seaice_hsalt_sd              =   0.0000000000000E+00
(PID.TID 0000.0001) %MON seaice_hsalt_del2            =   0.0000000000000E+00
(PID.TID 0000.0001) // =======================================================
(PID.TID 0000.0001) // End MONITOR SEAICE statistics
(PID.TID 0000.0001) // =======================================================
 myIter=            1
(PID.TID 0000.0001) // Model state written, timestep         1
(PID.TID 0000.0001) 
 cg2d: Sum(rhs),rhsMax =   0.00000000000000E+00  0.00000000000000E+00
 cg2d: Sum(rhs),rhsMax =   1.00000000000000E+00  1.08504365899875E-05
(PID.TID 0000.0001) // =======================================================
(PID.TID 0000.0001) // Begin MONITOR dynamic field statistics
(PID.TID 0000.0001) // =======================================================
(PID.TID 0000.0001) %MON g__time_tsnumber             =                     2
(PID.TID 0000.0001) %MON g__time_secondsf             =   7.2000000000000E+03
(PID.TID 0000.0001) %MON g__dynstat_g_eta_max         =   0.0000000000000E+00
(PID.TID 0000.0001) %MON g__dynstat_g_eta_min         =   0.0000000000000E+00
(PID.TID 0000.0001) %MON g__dynstat_g_eta_mean        =   0.0000000000000E+00
(PID.TID 0000.0001) %MON g__dynstat_g_eta_sd          =   0.0000000000000E+00
(PID.TID 0000.0001) %MON g__dynstat_g_eta_del2        =   0.0000000000000E+00
(PID.TID 0000.0001) %MON g__dynstat_g_uvel_max        =   0.0000000000000E+00
(PID.TID 0000.0001) %MON g__dynstat_g_uvel_min        =   0.0000000000000E+00
(PID.TID 0000.0001) %MON g__dynstat_g_uvel_mean       =   0.0000000000000E+00
(PID.TID 0000.0001) %MON g__dynstat_g_uvel_sd         =   0.0000000000000E+00
(PID.TID 0000.0001) %MON g__dynstat_g_uvel_del2       =   0.0000000000000E+00
(PID.TID 0000.0001) %MON g__dynstat_g_vvel_max        =   0.0000000000000E+00
(PID.TID 0000.0001) %MON g__dynstat_g_vvel_min        =   0.0000000000000E+00
(PID.TID 0000.0001) %MON g__dynstat_g_vvel_mean       =   0.0000000000000E+00
(PID.TID 0000.0001) %MON g__dynstat_g_vvel_sd         =   0.0000000000000E+00
(PID.TID 0000.0001) %MON g__dynstat_g_vvel_del2       =   0.0000000000000E+00
(PID.TID 0000.0001) %MON g__dynstat_g_wvel_max        =   0.0000000000000E+00
(PID.TID 0000.0001) %MON g__dynstat_g_wvel_min        =   0.0000000000000E+00
(PID.TID 0000.0001) %MON g__dynstat_g_wvel_mean       =   0.0000000000000E+00
(PID.TID 0000.0001) %MON g__dynstat_g_wvel_sd         =   0.0000000000000E+00
(PID.TID 0000.0001) %MON g__dynstat_g_wvel_del2       =   0.0000000000000E+00
(PID.TID 0000.0001) %MON g__dynstat_g_theta_max       =   0.0000000000000E+00
(PID.TID 0000.0001) %MON g__dynstat_g_theta_min       =   0.0000000000000E+00
(PID.TID 0000.0001) %MON g__dynstat_g_theta_mean      =   0.0000000000000E+00
(PID.TID 0000.0001) %MON g__dynstat_g_theta_sd        =   0.0000000000000E+00
(PID.TID 0000.0001) %MON g__dynstat_g_theta_del2      =   0.0000000000000E+00
(PID.TID 0000.0001) %MON g__dynstat_g_salt_max        =   0.0000000000000E+00
(PID.TID 0000.0001) %MON g__dynstat_g_salt_min        =   0.0000000000000E+00
(PID.TID 0000.0001) %MON g__dynstat_g_salt_mean       =   0.0000000000000E+00
(PID.TID 0000.0001) %MON g__dynstat_g_salt_sd         =   0.0000000000000E+00
(PID.TID 0000.0001) %MON g__dynstat_g_salt_del2       =   0.0000000000000E+00
(PID.TID 0000.0001) %MON g__dynstat_g_sst_max         =   0.0000000000000E+00
(PID.TID 0000.0001) %MON g__dynstat_g_sst_min         =   0.0000000000000E+00
(PID.TID 0000.0001) %MON g__dynstat_g_sst_mean        =   0.0000000000000E+00
(PID.TID 0000.0001) %MON g__dynstat_g_sst_sd          =   0.0000000000000E+00
(PID.TID 0000.0001) %MON g__dynstat_g_sst_del2        =   0.0000000000000E+00
(PID.TID 0000.0001) %MON g__dynstat_g_sss_max         =   0.0000000000000E+00
(PID.TID 0000.0001) %MON g__dynstat_g_sss_min         =   0.0000000000000E+00
(PID.TID 0000.0001) %MON g__dynstat_g_sss_mean        =   0.0000000000000E+00
(PID.TID 0000.0001) %MON g__dynstat_g_sss_sd          =   0.0000000000000E+00
(PID.TID 0000.0001) %MON g__dynstat_g_sss_del2        =   0.0000000000000E+00
(PID.TID 0000.0001) %MON g__forcing_g_qnet_max        =   0.0000000000000E+00
(PID.TID 0000.0001) %MON g__forcing_g_qnet_min        =   0.0000000000000E+00
(PID.TID 0000.0001) %MON g__forcing_g_qnet_mean       =   0.0000000000000E+00
(PID.TID 0000.0001) %MON g__forcing_g_qnet_sd         =   0.0000000000000E+00
(PID.TID 0000.0001) %MON g__forcing_g_qnet_del2       =   0.0000000000000E+00
(PID.TID 0000.0001) %MON g__forcing_g_qsw_max         =   0.0000000000000E+00
(PID.TID 0000.0001) %MON g__forcing_g_qsw_min         =   0.0000000000000E+00
(PID.TID 0000.0001) %MON g__forcing_g_qsw_mean        =   0.0000000000000E+00
(PID.TID 0000.0001) %MON g__forcing_g_qsw_sd          =   0.0000000000000E+00
(PID.TID 0000.0001) %MON g__forcing_g_qsw_del2        =   0.0000000000000E+00
(PID.TID 0000.0001) %MON g__forcing_g_empmr_max       =   0.0000000000000E+00
(PID.TID 0000.0001) %MON g__forcing_g_empmr_min       =   0.0000000000000E+00
(PID.TID 0000.0001) %MON g__forcing_g_empmr_mean      =   0.0000000000000E+00
(PID.TID 0000.0001) %MON g__forcing_g_empmr_sd        =   0.0000000000000E+00
(PID.TID 0000.0001) %MON g__forcing_g_empmr_del2      =   0.0000000000000E+00
(PID.TID 0000.0001) %MON g__forcing_g_fu_max          =   0.0000000000000E+00
(PID.TID 0000.0001) %MON g__forcing_g_fu_min          =   0.0000000000000E+00
(PID.TID 0000.0001) %MON g__forcing_g_fu_mean         =   0.0000000000000E+00
(PID.TID 0000.0001) %MON g__forcing_g_fu_sd           =   0.0000000000000E+00
(PID.TID 0000.0001) %MON g__forcing_g_fu_del2         =   0.0000000000000E+00
(PID.TID 0000.0001) %MON g__forcing_g_fv_max          =   0.0000000000000E+00
(PID.TID 0000.0001) %MON g__forcing_g_fv_min          =   0.0000000000000E+00
(PID.TID 0000.0001) %MON g__forcing_g_fv_mean         =   0.0000000000000E+00
(PID.TID 0000.0001) %MON g__forcing_g_fv_sd           =   0.0000000000000E+00
(PID.TID 0000.0001) %MON g__forcing_g_fv_del2         =   0.0000000000000E+00
(PID.TID 0000.0001) %MON g__g_vcfl_g_uvel_max         =   0.0000000000000E+00
(PID.TID 0000.0001) %MON g__g_vcfl_g_vvel_max         =   0.0000000000000E+00
(PID.TID 0000.0001) %MON g__g_vcfl_g_wvel_max         =   0.0000000000000E+00
(PID.TID 0000.0001) %MON g__g_vcfl_g_W_hf_max         =   0.0000000000000E+00
(PID.TID 0000.0001) // =======================================================
(PID.TID 0000.0001) // End MONITOR dynamic field statistics
(PID.TID 0000.0001) // =======================================================
(PID.TID 0000.0001) // =======================================================
(PID.TID 0000.0001) // Begin MONITOR SEAICE statistics
(PID.TID 0000.0001) // =======================================================
(PID.TID 0000.0001) %MON seaice_tsnumber              =                     2
(PID.TID 0000.0001) %MON seaice_time_sec              =   7.2000000000000E+03
(PID.TID 0000.0001) %MON seaice_uice_max              =   0.0000000000000E+00
(PID.TID 0000.0001) %MON seaice_uice_min              =   0.0000000000000E+00
(PID.TID 0000.0001) %MON seaice_uice_mean             =   0.0000000000000E+00
(PID.TID 0000.0001) %MON seaice_uice_sd               =   0.0000000000000E+00
(PID.TID 0000.0001) %MON seaice_uice_del2             =   0.0000000000000E+00
(PID.TID 0000.0001) %MON seaice_vice_max              =   0.0000000000000E+00
(PID.TID 0000.0001) %MON seaice_vice_min              =   0.0000000000000E+00
(PID.TID 0000.0001) %MON seaice_vice_mean             =   0.0000000000000E+00
(PID.TID 0000.0001) %MON seaice_vice_sd               =   0.0000000000000E+00
(PID.TID 0000.0001) %MON seaice_vice_del2             =   0.0000000000000E+00
(PID.TID 0000.0001) %MON seaice_area_max              =   8.8874464471166E-03
(PID.TID 0000.0001) %MON seaice_area_min              =   8.8874464471166E-03
(PID.TID 0000.0001) %MON seaice_area_mean             =   8.8874464471166E-03
(PID.TID 0000.0001) %MON seaice_area_sd               =   0.0000000000000E+00
(PID.TID 0000.0001) %MON seaice_area_del2             =   0.0000000000000E+00
(PID.TID 0000.0001) %MON seaice_heff_max              =   3.0950421993654E-03
(PID.TID 0000.0001) %MON seaice_heff_min              =   3.0950421993654E-03
(PID.TID 0000.0001) %MON seaice_heff_mean             =   3.0950421993654E-03
(PID.TID 0000.0001) %MON seaice_heff_sd               =   0.0000000000000E+00
(PID.TID 0000.0001) %MON seaice_heff_del2             =   0.0000000000000E+00
(PID.TID 0000.0001) %MON seaice_hsnow_max             =   0.0000000000000E+00
(PID.TID 0000.0001) %MON seaice_hsnow_min             =   0.0000000000000E+00
(PID.TID 0000.0001) %MON seaice_hsnow_mean            =   0.0000000000000E+00
(PID.TID 0000.0001) %MON seaice_hsnow_sd              =   0.0000000000000E+00
(PID.TID 0000.0001) %MON seaice_hsnow_del2            =   0.0000000000000E+00
(PID.TID 0000.0001) %MON seaice_hsalt_max             =   2.4510647316748E+01
(PID.TID 0000.0001) %MON seaice_hsalt_min             =   2.4510647316748E+01
(PID.TID 0000.0001) %MON seaice_hsalt_mean            =   2.4510647316748E+01
(PID.TID 0000.0001) %MON seaice_hsalt_sd              =   0.0000000000000E+00
(PID.TID 0000.0001) %MON seaice_hsalt_del2            =   0.0000000000000E+00
(PID.TID 0000.0001) // =======================================================
(PID.TID 0000.0001) // End MONITOR SEAICE statistics
(PID.TID 0000.0001) // =======================================================
 myIter=            2
(PID.TID 0000.0001) // Model state written, timestep         2
(PID.TID 0000.0001) 
 cg2d: Sum(rhs),rhsMax =   0.00000000000000E+00  0.00000000000000E+00
 cg2d: Sum(rhs),rhsMax =   1.00000000000000E+00  1.54115956505727E-05
(PID.TID 0000.0001) // =======================================================
(PID.TID 0000.0001) // Begin MONITOR dynamic field statistics
(PID.TID 0000.0001) // =======================================================
(PID.TID 0000.0001) %MON g__time_tsnumber             =                     3
(PID.TID 0000.0001) %MON g__time_secondsf             =   1.0800000000000E+04
(PID.TID 0000.0001) %MON g__dynstat_g_eta_max         =   0.0000000000000E+00
(PID.TID 0000.0001) %MON g__dynstat_g_eta_min         =   0.0000000000000E+00
(PID.TID 0000.0001) %MON g__dynstat_g_eta_mean        =   0.0000000000000E+00
(PID.TID 0000.0001) %MON g__dynstat_g_eta_sd          =   0.0000000000000E+00
(PID.TID 0000.0001) %MON g__dynstat_g_eta_del2        =   0.0000000000000E+00
(PID.TID 0000.0001) %MON g__dynstat_g_uvel_max        =   0.0000000000000E+00
(PID.TID 0000.0001) %MON g__dynstat_g_uvel_min        =   0.0000000000000E+00
(PID.TID 0000.0001) %MON g__dynstat_g_uvel_mean       =   0.0000000000000E+00
(PID.TID 0000.0001) %MON g__dynstat_g_uvel_sd         =   0.0000000000000E+00
(PID.TID 0000.0001) %MON g__dynstat_g_uvel_del2       =   0.0000000000000E+00
(PID.TID 0000.0001) %MON g__dynstat_g_vvel_max        =   0.0000000000000E+00
(PID.TID 0000.0001) %MON g__dynstat_g_vvel_min        =   0.0000000000000E+00
(PID.TID 0000.0001) %MON g__dynstat_g_vvel_mean       =   0.0000000000000E+00
(PID.TID 0000.0001) %MON g__dynstat_g_vvel_sd         =   0.0000000000000E+00
(PID.TID 0000.0001) %MON g__dynstat_g_vvel_del2       =   0.0000000000000E+00
(PID.TID 0000.0001) %MON g__dynstat_g_wvel_max        =   0.0000000000000E+00
(PID.TID 0000.0001) %MON g__dynstat_g_wvel_min        =   0.0000000000000E+00
(PID.TID 0000.0001) %MON g__dynstat_g_wvel_mean       =   0.0000000000000E+00
(PID.TID 0000.0001) %MON g__dynstat_g_wvel_sd         =   0.0000000000000E+00
(PID.TID 0000.0001) %MON g__dynstat_g_wvel_del2       =   0.0000000000000E+00
(PID.TID 0000.0001) %MON g__dynstat_g_theta_max       =   0.0000000000000E+00
(PID.TID 0000.0001) %MON g__dynstat_g_theta_min       =   0.0000000000000E+00
(PID.TID 0000.0001) %MON g__dynstat_g_theta_mean      =   0.0000000000000E+00
(PID.TID 0000.0001) %MON g__dynstat_g_theta_sd        =   0.0000000000000E+00
(PID.TID 0000.0001) %MON g__dynstat_g_theta_del2      =   0.0000000000000E+00
(PID.TID 0000.0001) %MON g__dynstat_g_salt_max        =   0.0000000000000E+00
(PID.TID 0000.0001) %MON g__dynstat_g_salt_min        =   0.0000000000000E+00
(PID.TID 0000.0001) %MON g__dynstat_g_salt_mean       =   0.0000000000000E+00
(PID.TID 0000.0001) %MON g__dynstat_g_salt_sd         =   0.0000000000000E+00
(PID.TID 0000.0001) %MON g__dynstat_g_salt_del2       =   0.0000000000000E+00
(PID.TID 0000.0001) %MON g__dynstat_g_sst_max         =   0.0000000000000E+00
(PID.TID 0000.0001) %MON g__dynstat_g_sst_min         =   0.0000000000000E+00
(PID.TID 0000.0001) %MON g__dynstat_g_sst_mean        =   0.0000000000000E+00
(PID.TID 0000.0001) %MON g__dynstat_g_sst_sd          =   0.0000000000000E+00
(PID.TID 0000.0001) %MON g__dynstat_g_sst_del2        =   0.0000000000000E+00
(PID.TID 0000.0001) %MON g__dynstat_g_sss_max         =   0.0000000000000E+00
(PID.TID 0000.0001) %MON g__dynstat_g_sss_min         =   0.0000000000000E+00
(PID.TID 0000.0001) %MON g__dynstat_g_sss_mean        =   0.0000000000000E+00
(PID.TID 0000.0001) %MON g__dynstat_g_sss_sd          =   0.0000000000000E+00
(PID.TID 0000.0001) %MON g__dynstat_g_sss_del2        =   0.0000000000000E+00
(PID.TID 0000.0001) %MON g__forcing_g_qnet_max        =   0.0000000000000E+00
(PID.TID 0000.0001) %MON g__forcing_g_qnet_min        =   0.0000000000000E+00
(PID.TID 0000.0001) %MON g__forcing_g_qnet_mean       =   0.0000000000000E+00
(PID.TID 0000.0001) %MON g__forcing_g_qnet_sd         =   0.0000000000000E+00
(PID.TID 0000.0001) %MON g__forcing_g_qnet_del2       =   0.0000000000000E+00
(PID.TID 0000.0001) %MON g__forcing_g_qsw_max         =   0.0000000000000E+00
(PID.TID 0000.0001) %MON g__forcing_g_qsw_min         =   0.0000000000000E+00
(PID.TID 0000.0001) %MON g__forcing_g_qsw_mean        =   0.0000000000000E+00
(PID.TID 0000.0001) %MON g__forcing_g_qsw_sd          =   0.0000000000000E+00
(PID.TID 0000.0001) %MON g__forcing_g_qsw_del2        =   0.0000000000000E+00
(PID.TID 0000.0001) %MON g__forcing_g_empmr_max       =   0.0000000000000E+00
(PID.TID 0000.0001) %MON g__forcing_g_empmr_min       =   0.0000000000000E+00
(PID.TID 0000.0001) %MON g__forcing_g_empmr_mean      =   0.0000000000000E+00
(PID.TID 0000.0001) %MON g__forcing_g_empmr_sd        =   0.0000000000000E+00
(PID.TID 0000.0001) %MON g__forcing_g_empmr_del2      =   0.0000000000000E+00
(PID.TID 0000.0001) %MON g__forcing_g_fu_max          =   0.0000000000000E+00
(PID.TID 0000.0001) %MON g__forcing_g_fu_min          =   0.0000000000000E+00
(PID.TID 0000.0001) %MON g__forcing_g_fu_mean         =   0.0000000000000E+00
(PID.TID 0000.0001) %MON g__forcing_g_fu_sd           =   0.0000000000000E+00
(PID.TID 0000.0001) %MON g__forcing_g_fu_del2         =   0.0000000000000E+00
(PID.TID 0000.0001) %MON g__forcing_g_fv_max          =   0.0000000000000E+00
(PID.TID 0000.0001) %MON g__forcing_g_fv_min          =   0.0000000000000E+00
(PID.TID 0000.0001) %MON g__forcing_g_fv_mean         =   0.0000000000000E+00
(PID.TID 0000.0001) %MON g__forcing_g_fv_sd           =   0.0000000000000E+00
(PID.TID 0000.0001) %MON g__forcing_g_fv_del2         =   0.0000000000000E+00
(PID.TID 0000.0001) %MON g__g_vcfl_g_uvel_max         =   0.0000000000000E+00
(PID.TID 0000.0001) %MON g__g_vcfl_g_vvel_max         =   0.0000000000000E+00
(PID.TID 0000.0001) %MON g__g_vcfl_g_wvel_max         =   0.0000000000000E+00
(PID.TID 0000.0001) %MON g__g_vcfl_g_W_hf_max         =   0.0000000000000E+00
(PID.TID 0000.0001) // =======================================================
(PID.TID 0000.0001) // End MONITOR dynamic field statistics
(PID.TID 0000.0001) // =======================================================
(PID.TID 0000.0001) // =======================================================
(PID.TID 0000.0001) // Begin MONITOR SEAICE statistics
(PID.TID 0000.0001) // =======================================================
(PID.TID 0000.0001) %MON seaice_tsnumber              =                     3
(PID.TID 0000.0001) %MON seaice_time_sec              =   1.0800000000000E+04
(PID.TID 0000.0001) %MON seaice_uice_max              =   0.0000000000000E+00
(PID.TID 0000.0001) %MON seaice_uice_min              =   0.0000000000000E+00
(PID.TID 0000.0001) %MON seaice_uice_mean             =   0.0000000000000E+00
(PID.TID 0000.0001) %MON seaice_uice_sd               =   0.0000000000000E+00
(PID.TID 0000.0001) %MON seaice_uice_del2             =   0.0000000000000E+00
(PID.TID 0000.0001) %MON seaice_vice_max              =   0.0000000000000E+00
(PID.TID 0000.0001) %MON seaice_vice_min              =   0.0000000000000E+00
(PID.TID 0000.0001) %MON seaice_vice_mean             =   0.0000000000000E+00
(PID.TID 0000.0001) %MON seaice_vice_sd               =   0.0000000000000E+00
(PID.TID 0000.0001) %MON seaice_vice_del2             =   0.0000000000000E+00
(PID.TID 0000.0001) %MON seaice_area_max              =   1.4502448062550E-02
(PID.TID 0000.0001) %MON seaice_area_min              =   1.4502448062550E-02
(PID.TID 0000.0001) %MON seaice_area_mean             =   1.4502448062550E-02
(PID.TID 0000.0001) %MON seaice_area_sd               =   0.0000000000000E+00
(PID.TID 0000.0001) %MON seaice_area_del2             =   0.0000000000000E+00
(PID.TID 0000.0001) %MON seaice_heff_max              =   4.3836625488979E-03
(PID.TID 0000.0001) %MON seaice_heff_min              =   4.3836625488979E-03
(PID.TID 0000.0001) %MON seaice_heff_mean             =   4.3836625488979E-03
(PID.TID 0000.0001) %MON seaice_heff_sd               =   8.6736173798840E-19
(PID.TID 0000.0001) %MON seaice_heff_del2             =   0.0000000000000E+00
(PID.TID 0000.0001) %MON seaice_hsnow_max             =   0.0000000000000E+00
(PID.TID 0000.0001) %MON seaice_hsnow_min             =   0.0000000000000E+00
(PID.TID 0000.0001) %MON seaice_hsnow_mean            =   0.0000000000000E+00
(PID.TID 0000.0001) %MON seaice_hsnow_sd              =   0.0000000000000E+00
(PID.TID 0000.0001) %MON seaice_hsnow_del2            =   0.0000000000000E+00
(PID.TID 0000.0001) %MON seaice_hsalt_max             =   3.4716472667745E+01
(PID.TID 0000.0001) %MON seaice_hsalt_min             =   3.4716472667745E+01
(PID.TID 0000.0001) %MON seaice_hsalt_mean            =   3.4716472667745E+01
(PID.TID 0000.0001) %MON seaice_hsalt_sd              =   0.0000000000000E+00
(PID.TID 0000.0001) %MON seaice_hsalt_del2            =   0.0000000000000E+00
(PID.TID 0000.0001) // =======================================================
(PID.TID 0000.0001) // End MONITOR SEAICE statistics
(PID.TID 0000.0001) // =======================================================
 myIter=            3
(PID.TID 0000.0001) // Model state written, timestep         3
(PID.TID 0000.0001) 
 cg2d: Sum(rhs),rhsMax =   0.00000000000000E+00  0.00000000000000E+00
 cg2d: Sum(rhs),rhsMax =   1.00000000000000E+00  1.91662515894767E-05
(PID.TID 0000.0001) // =======================================================
(PID.TID 0000.0001) // Begin MONITOR dynamic field statistics
(PID.TID 0000.0001) // =======================================================
(PID.TID 0000.0001) %MON g__time_tsnumber             =                     4
(PID.TID 0000.0001) %MON g__time_secondsf             =   1.4400000000000E+04
(PID.TID 0000.0001) %MON g__dynstat_g_eta_max         =   0.0000000000000E+00
(PID.TID 0000.0001) %MON g__dynstat_g_eta_min         =   0.0000000000000E+00
(PID.TID 0000.0001) %MON g__dynstat_g_eta_mean        =   0.0000000000000E+00
(PID.TID 0000.0001) %MON g__dynstat_g_eta_sd          =   0.0000000000000E+00
(PID.TID 0000.0001) %MON g__dynstat_g_eta_del2        =   0.0000000000000E+00
(PID.TID 0000.0001) %MON g__dynstat_g_uvel_max        =   0.0000000000000E+00
(PID.TID 0000.0001) %MON g__dynstat_g_uvel_min        =   0.0000000000000E+00
(PID.TID 0000.0001) %MON g__dynstat_g_uvel_mean       =   0.0000000000000E+00
(PID.TID 0000.0001) %MON g__dynstat_g_uvel_sd         =   0.0000000000000E+00
(PID.TID 0000.0001) %MON g__dynstat_g_uvel_del2       =   0.0000000000000E+00
(PID.TID 0000.0001) %MON g__dynstat_g_vvel_max        =   0.0000000000000E+00
(PID.TID 0000.0001) %MON g__dynstat_g_vvel_min        =   0.0000000000000E+00
(PID.TID 0000.0001) %MON g__dynstat_g_vvel_mean       =   0.0000000000000E+00
(PID.TID 0000.0001) %MON g__dynstat_g_vvel_sd         =   0.0000000000000E+00
(PID.TID 0000.0001) %MON g__dynstat_g_vvel_del2       =   0.0000000000000E+00
(PID.TID 0000.0001) %MON g__dynstat_g_wvel_max        =   0.0000000000000E+00
(PID.TID 0000.0001) %MON g__dynstat_g_wvel_min        =   0.0000000000000E+00
(PID.TID 0000.0001) %MON g__dynstat_g_wvel_mean       =   0.0000000000000E+00
(PID.TID 0000.0001) %MON g__dynstat_g_wvel_sd         =   0.0000000000000E+00
(PID.TID 0000.0001) %MON g__dynstat_g_wvel_del2       =   0.0000000000000E+00
(PID.TID 0000.0001) %MON g__dynstat_g_theta_max       =   0.0000000000000E+00
(PID.TID 0000.0001) %MON g__dynstat_g_theta_min       =   0.0000000000000E+00
(PID.TID 0000.0001) %MON g__dynstat_g_theta_mean      =   0.0000000000000E+00
(PID.TID 0000.0001) %MON g__dynstat_g_theta_sd        =   0.0000000000000E+00
(PID.TID 0000.0001) %MON g__dynstat_g_theta_del2      =   0.0000000000000E+00
(PID.TID 0000.0001) %MON g__dynstat_g_salt_max        =   0.0000000000000E+00
(PID.TID 0000.0001) %MON g__dynstat_g_salt_min        =   0.0000000000000E+00
(PID.TID 0000.0001) %MON g__dynstat_g_salt_mean       =   0.0000000000000E+00
(PID.TID 0000.0001) %MON g__dynstat_g_salt_sd         =   0.0000000000000E+00
(PID.TID 0000.0001) %MON g__dynstat_g_salt_del2       =   0.0000000000000E+00
(PID.TID 0000.0001) %MON g__dynstat_g_sst_max         =   0.0000000000000E+00
(PID.TID 0000.0001) %MON g__dynstat_g_sst_min         =   0.0000000000000E+00
(PID.TID 0000.0001) %MON g__dynstat_g_sst_mean        =   0.0000000000000E+00
(PID.TID 0000.0001) %MON g__dynstat_g_sst_sd          =   0.0000000000000E+00
(PID.TID 0000.0001) %MON g__dynstat_g_sst_del2        =   0.0000000000000E+00
(PID.TID 0000.0001) %MON g__dynstat_g_sss_max         =   0.0000000000000E+00
(PID.TID 0000.0001) %MON g__dynstat_g_sss_min         =   0.0000000000000E+00
(PID.TID 0000.0001) %MON g__dynstat_g_sss_mean        =   0.0000000000000E+00
(PID.TID 0000.0001) %MON g__dynstat_g_sss_sd          =   0.0000000000000E+00
(PID.TID 0000.0001) %MON g__dynstat_g_sss_del2        =   0.0000000000000E+00
(PID.TID 0000.0001) %MON g__forcing_g_qnet_max        =   0.0000000000000E+00
(PID.TID 0000.0001) %MON g__forcing_g_qnet_min        =   0.0000000000000E+00
(PID.TID 0000.0001) %MON g__forcing_g_qnet_mean       =   0.0000000000000E+00
(PID.TID 0000.0001) %MON g__forcing_g_qnet_sd         =   0.0000000000000E+00
(PID.TID 0000.0001) %MON g__forcing_g_qnet_del2       =   0.0000000000000E+00
(PID.TID 0000.0001) %MON g__forcing_g_qsw_max         =   0.0000000000000E+00
(PID.TID 0000.0001) %MON g__forcing_g_qsw_min         =   0.0000000000000E+00
(PID.TID 0000.0001) %MON g__forcing_g_qsw_mean        =   0.0000000000000E+00
(PID.TID 0000.0001) %MON g__forcing_g_qsw_sd          =   0.0000000000000E+00
(PID.TID 0000.0001) %MON g__forcing_g_qsw_del2        =   0.0000000000000E+00
(PID.TID 0000.0001) %MON g__forcing_g_empmr_max       =   0.0000000000000E+00
(PID.TID 0000.0001) %MON g__forcing_g_empmr_min       =   0.0000000000000E+00
(PID.TID 0000.0001) %MON g__forcing_g_empmr_mean      =   0.0000000000000E+00
(PID.TID 0000.0001) %MON g__forcing_g_empmr_sd        =   0.0000000000000E+00
(PID.TID 0000.0001) %MON g__forcing_g_empmr_del2      =   0.0000000000000E+00
(PID.TID 0000.0001) %MON g__forcing_g_fu_max          =   0.0000000000000E+00
(PID.TID 0000.0001) %MON g__forcing_g_fu_min          =   0.0000000000000E+00
(PID.TID 0000.0001) %MON g__forcing_g_fu_mean         =   0.0000000000000E+00
(PID.TID 0000.0001) %MON g__forcing_g_fu_sd           =   0.0000000000000E+00
(PID.TID 0000.0001) %MON g__forcing_g_fu_del2         =   0.0000000000000E+00
(PID.TID 0000.0001) %MON g__forcing_g_fv_max          =   0.0000000000000E+00
(PID.TID 0000.0001) %MON g__forcing_g_fv_min          =   0.0000000000000E+00
(PID.TID 0000.0001) %MON g__forcing_g_fv_mean         =   0.0000000000000E+00
(PID.TID 0000.0001) %MON g__forcing_g_fv_sd           =   0.0000000000000E+00
(PID.TID 0000.0001) %MON g__forcing_g_fv_del2         =   0.0000000000000E+00
(PID.TID 0000.0001) %MON g__g_vcfl_g_uvel_max         =   0.0000000000000E+00
(PID.TID 0000.0001) %MON g__g_vcfl_g_vvel_max         =   0.0000000000000E+00
(PID.TID 0000.0001) %MON g__g_vcfl_g_wvel_max         =   0.0000000000000E+00
(PID.TID 0000.0001) %MON g__g_vcfl_g_W_hf_max         =   0.0000000000000E+00
(PID.TID 0000.0001) // =======================================================
(PID.TID 0000.0001) // End MONITOR dynamic field statistics
(PID.TID 0000.0001) // =======================================================
(PID.TID 0000.0001) // =======================================================
(PID.TID 0000.0001) // Begin MONITOR SEAICE statistics
(PID.TID 0000.0001) // =======================================================
(PID.TID 0000.0001) %MON seaice_tsnumber              =                     4
(PID.TID 0000.0001) %MON seaice_time_sec              =   1.4400000000000E+04
(PID.TID 0000.0001) %MON seaice_uice_max              =   0.0000000000000E+00
(PID.TID 0000.0001) %MON seaice_uice_min              =   0.0000000000000E+00
(PID.TID 0000.0001) %MON seaice_uice_mean             =   0.0000000000000E+00
(PID.TID 0000.0001) %MON seaice_uice_sd               =   0.0000000000000E+00
(PID.TID 0000.0001) %MON seaice_uice_del2             =   0.0000000000000E+00
(PID.TID 0000.0001) %MON seaice_vice_max              =   0.0000000000000E+00
(PID.TID 0000.0001) %MON seaice_vice_min              =   0.0000000000000E+00
(PID.TID 0000.0001) %MON seaice_vice_mean             =   0.0000000000000E+00
(PID.TID 0000.0001) %MON seaice_vice_sd               =   0.0000000000000E+00
(PID.TID 0000.0001) %MON seaice_vice_del2             =   0.0000000000000E+00
(PID.TID 0000.0001) %MON seaice_area_max              =   2.0024319664248E-02
(PID.TID 0000.0001) %MON seaice_area_min              =   2.0024319664248E-02
(PID.TID 0000.0001) %MON seaice_area_mean             =   2.0024319664248E-02
(PID.TID 0000.0001) %MON seaice_area_sd               =   0.0000000000000E+00
(PID.TID 0000.0001) %MON seaice_area_del2             =   0.0000000000000E+00
(PID.TID 0000.0001) %MON seaice_heff_max              =   5.4305287532319E-03
(PID.TID 0000.0001) %MON seaice_heff_min              =   5.4305287532319E-03
(PID.TID 0000.0001) %MON seaice_heff_mean             =   5.4305287532319E-03
(PID.TID 0000.0001) %MON seaice_heff_sd               =   0.0000000000000E+00
(PID.TID 0000.0001) %MON seaice_heff_del2             =   0.0000000000000E+00
(PID.TID 0000.0001) %MON seaice_hsnow_max             =   0.0000000000000E+00
(PID.TID 0000.0001) %MON seaice_hsnow_min             =   0.0000000000000E+00
(PID.TID 0000.0001) %MON seaice_hsnow_mean            =   0.0000000000000E+00
(PID.TID 0000.0001) %MON seaice_hsnow_sd              =   0.0000000000000E+00
(PID.TID 0000.0001) %MON seaice_hsnow_del2            =   0.0000000000000E+00
(PID.TID 0000.0001) %MON seaice_hsalt_max             =   4.3008109578217E+01
(PID.TID 0000.0001) %MON seaice_hsalt_min             =   4.3008109578217E+01
(PID.TID 0000.0001) %MON seaice_hsalt_mean            =   4.3008109578217E+01
(PID.TID 0000.0001) %MON seaice_hsalt_sd              =   0.0000000000000E+00
(PID.TID 0000.0001) %MON seaice_hsalt_del2            =   0.0000000000000E+00
(PID.TID 0000.0001) // =======================================================
(PID.TID 0000.0001) // End MONITOR SEAICE statistics
(PID.TID 0000.0001) // =======================================================
 myIter=            4
(PID.TID 0000.0001) // Model state written, timestep         4
(PID.TID 0000.0001) 
 cg2d: Sum(rhs),rhsMax =   0.00000000000000E+00  0.00000000000000E+00
 cg2d: Sum(rhs),rhsMax =   1.00000000000000E+00  2.21776143798627E-05
(PID.TID 0000.0001) // =======================================================
(PID.TID 0000.0001) // Begin MONITOR dynamic field statistics
(PID.TID 0000.0001) // =======================================================
(PID.TID 0000.0001) %MON g__time_tsnumber             =                     5
(PID.TID 0000.0001) %MON g__time_secondsf             =   1.8000000000000E+04
(PID.TID 0000.0001) %MON g__dynstat_g_eta_max         =   0.0000000000000E+00
(PID.TID 0000.0001) %MON g__dynstat_g_eta_min         =   0.0000000000000E+00
(PID.TID 0000.0001) %MON g__dynstat_g_eta_mean        =   0.0000000000000E+00
(PID.TID 0000.0001) %MON g__dynstat_g_eta_sd          =   0.0000000000000E+00
(PID.TID 0000.0001) %MON g__dynstat_g_eta_del2        =   0.0000000000000E+00
(PID.TID 0000.0001) %MON g__dynstat_g_uvel_max        =   0.0000000000000E+00
(PID.TID 0000.0001) %MON g__dynstat_g_uvel_min        =   0.0000000000000E+00
(PID.TID 0000.0001) %MON g__dynstat_g_uvel_mean       =   0.0000000000000E+00
(PID.TID 0000.0001) %MON g__dynstat_g_uvel_sd         =   0.0000000000000E+00
(PID.TID 0000.0001) %MON g__dynstat_g_uvel_del2       =   0.0000000000000E+00
(PID.TID 0000.0001) %MON g__dynstat_g_vvel_max        =   0.0000000000000E+00
(PID.TID 0000.0001) %MON g__dynstat_g_vvel_min        =   0.0000000000000E+00
(PID.TID 0000.0001) %MON g__dynstat_g_vvel_mean       =   0.0000000000000E+00
(PID.TID 0000.0001) %MON g__dynstat_g_vvel_sd         =   0.0000000000000E+00
(PID.TID 0000.0001) %MON g__dynstat_g_vvel_del2       =   0.0000000000000E+00
(PID.TID 0000.0001) %MON g__dynstat_g_wvel_max        =   0.0000000000000E+00
(PID.TID 0000.0001) %MON g__dynstat_g_wvel_min        =   0.0000000000000E+00
(PID.TID 0000.0001) %MON g__dynstat_g_wvel_mean       =   0.0000000000000E+00
(PID.TID 0000.0001) %MON g__dynstat_g_wvel_sd         =   0.0000000000000E+00
(PID.TID 0000.0001) %MON g__dynstat_g_wvel_del2       =   0.0000000000000E+00
(PID.TID 0000.0001) %MON g__dynstat_g_theta_max       =   0.0000000000000E+00
(PID.TID 0000.0001) %MON g__dynstat_g_theta_min       =   0.0000000000000E+00
(PID.TID 0000.0001) %MON g__dynstat_g_theta_mean      =   0.0000000000000E+00
(PID.TID 0000.0001) %MON g__dynstat_g_theta_sd        =   0.0000000000000E+00
(PID.TID 0000.0001) %MON g__dynstat_g_theta_del2      =   0.0000000000000E+00
(PID.TID 0000.0001) %MON g__dynstat_g_salt_max        =   0.0000000000000E+00
(PID.TID 0000.0001) %MON g__dynstat_g_salt_min        =   0.0000000000000E+00
(PID.TID 0000.0001) %MON g__dynstat_g_salt_mean       =   0.0000000000000E+00
(PID.TID 0000.0001) %MON g__dynstat_g_salt_sd         =   0.0000000000000E+00
(PID.TID 0000.0001) %MON g__dynstat_g_salt_del2       =   0.0000000000000E+00
(PID.TID 0000.0001) %MON g__dynstat_g_sst_max         =   0.0000000000000E+00
(PID.TID 0000.0001) %MON g__dynstat_g_sst_min         =   0.0000000000000E+00
(PID.TID 0000.0001) %MON g__dynstat_g_sst_mean        =   0.0000000000000E+00
(PID.TID 0000.0001) %MON g__dynstat_g_sst_sd          =   0.0000000000000E+00
(PID.TID 0000.0001) %MON g__dynstat_g_sst_del2        =   0.0000000000000E+00
(PID.TID 0000.0001) %MON g__dynstat_g_sss_max         =   0.0000000000000E+00
(PID.TID 0000.0001) %MON g__dynstat_g_sss_min         =   0.0000000000000E+00
(PID.TID 0000.0001) %MON g__dynstat_g_sss_mean        =   0.0000000000000E+00
(PID.TID 0000.0001) %MON g__dynstat_g_sss_sd          =   0.0000000000000E+00
(PID.TID 0000.0001) %MON g__dynstat_g_sss_del2        =   0.0000000000000E+00
(PID.TID 0000.0001) %MON g__forcing_g_qnet_max        =   0.0000000000000E+00
(PID.TID 0000.0001) %MON g__forcing_g_qnet_min        =   0.0000000000000E+00
(PID.TID 0000.0001) %MON g__forcing_g_qnet_mean       =   0.0000000000000E+00
(PID.TID 0000.0001) %MON g__forcing_g_qnet_sd         =   0.0000000000000E+00
(PID.TID 0000.0001) %MON g__forcing_g_qnet_del2       =   0.0000000000000E+00
(PID.TID 0000.0001) %MON g__forcing_g_qsw_max         =   0.0000000000000E+00
(PID.TID 0000.0001) %MON g__forcing_g_qsw_min         =   0.0000000000000E+00
(PID.TID 0000.0001) %MON g__forcing_g_qsw_mean        =   0.0000000000000E+00
(PID.TID 0000.0001) %MON g__forcing_g_qsw_sd          =   0.0000000000000E+00
(PID.TID 0000.0001) %MON g__forcing_g_qsw_del2        =   0.0000000000000E+00
(PID.TID 0000.0001) %MON g__forcing_g_empmr_max       =   0.0000000000000E+00
(PID.TID 0000.0001) %MON g__forcing_g_empmr_min       =   0.0000000000000E+00
(PID.TID 0000.0001) %MON g__forcing_g_empmr_mean      =   0.0000000000000E+00
(PID.TID 0000.0001) %MON g__forcing_g_empmr_sd        =   0.0000000000000E+00
(PID.TID 0000.0001) %MON g__forcing_g_empmr_del2      =   0.0000000000000E+00
(PID.TID 0000.0001) %MON g__forcing_g_fu_max          =   0.0000000000000E+00
(PID.TID 0000.0001) %MON g__forcing_g_fu_min          =   0.0000000000000E+00
(PID.TID 0000.0001) %MON g__forcing_g_fu_mean         =   0.0000000000000E+00
(PID.TID 0000.0001) %MON g__forcing_g_fu_sd           =   0.0000000000000E+00
(PID.TID 0000.0001) %MON g__forcing_g_fu_del2         =   0.0000000000000E+00
(PID.TID 0000.0001) %MON g__forcing_g_fv_max          =   0.0000000000000E+00
(PID.TID 0000.0001) %MON g__forcing_g_fv_min          =   0.0000000000000E+00
(PID.TID 0000.0001) %MON g__forcing_g_fv_mean         =   0.0000000000000E+00
(PID.TID 0000.0001) %MON g__forcing_g_fv_sd           =   0.0000000000000E+00
(PID.TID 0000.0001) %MON g__forcing_g_fv_del2         =   0.0000000000000E+00
(PID.TID 0000.0001) %MON g__g_vcfl_g_uvel_max         =   0.0000000000000E+00
(PID.TID 0000.0001) %MON g__g_vcfl_g_vvel_max         =   0.0000000000000E+00
(PID.TID 0000.0001) %MON g__g_vcfl_g_wvel_max         =   0.0000000000000E+00
(PID.TID 0000.0001) %MON g__g_vcfl_g_W_hf_max         =   0.0000000000000E+00
(PID.TID 0000.0001) // =======================================================
(PID.TID 0000.0001) // End MONITOR dynamic field statistics
(PID.TID 0000.0001) // =======================================================
(PID.TID 0000.0001) // =======================================================
(PID.TID 0000.0001) // Begin MONITOR SEAICE statistics
(PID.TID 0000.0001) // =======================================================
(PID.TID 0000.0001) %MON seaice_tsnumber              =                     5
(PID.TID 0000.0001) %MON seaice_time_sec              =   1.8000000000000E+04
(PID.TID 0000.0001) %MON seaice_uice_max              =   0.0000000000000E+00
(PID.TID 0000.0001) %MON seaice_uice_min              =   0.0000000000000E+00
(PID.TID 0000.0001) %MON seaice_uice_mean             =   0.0000000000000E+00
(PID.TID 0000.0001) %MON seaice_uice_sd               =   0.0000000000000E+00
(PID.TID 0000.0001) %MON seaice_uice_del2             =   0.0000000000000E+00
(PID.TID 0000.0001) %MON seaice_vice_max              =   0.0000000000000E+00
(PID.TID 0000.0001) %MON seaice_vice_min              =   0.0000000000000E+00
(PID.TID 0000.0001) %MON seaice_vice_mean             =   0.0000000000000E+00
(PID.TID 0000.0001) %MON seaice_vice_sd               =   0.0000000000000E+00
(PID.TID 0000.0001) %MON seaice_vice_del2             =   0.0000000000000E+00
(PID.TID 0000.0001) %MON seaice_area_max              =   2.5443230117344E-02
(PID.TID 0000.0001) %MON seaice_area_min              =   2.5443230117344E-02
(PID.TID 0000.0001) %MON seaice_area_mean             =   2.5443230117344E-02
(PID.TID 0000.0001) %MON seaice_area_sd               =   0.0000000000000E+00
(PID.TID 0000.0001) %MON seaice_area_del2             =   0.0000000000000E+00
(PID.TID 0000.0001) %MON seaice_heff_max              =   6.2546170708525E-03
(PID.TID 0000.0001) %MON seaice_heff_min              =   6.2546170708525E-03
(PID.TID 0000.0001) %MON seaice_heff_mean             =   6.2546170708525E-03
(PID.TID 0000.0001) %MON seaice_heff_sd               =   0.0000000000000E+00
(PID.TID 0000.0001) %MON seaice_heff_del2             =   0.0000000000000E+00
(PID.TID 0000.0001) %MON seaice_hsnow_max             =   0.0000000000000E+00
(PID.TID 0000.0001) %MON seaice_hsnow_min             =   0.0000000000000E+00
(PID.TID 0000.0001) %MON seaice_hsnow_mean            =   0.0000000000000E+00
(PID.TID 0000.0001) %MON seaice_hsnow_sd              =   0.0000000000000E+00
(PID.TID 0000.0001) %MON seaice_hsnow_del2            =   0.0000000000000E+00
(PID.TID 0000.0001) %MON seaice_hsalt_max             =   4.9535612796250E+01
(PID.TID 0000.0001) %MON seaice_hsalt_min             =   4.9535612796250E+01
(PID.TID 0000.0001) %MON seaice_hsalt_mean            =   4.9535612796250E+01
(PID.TID 0000.0001) %MON seaice_hsalt_sd              =   0.0000000000000E+00
(PID.TID 0000.0001) %MON seaice_hsalt_del2            =   0.0000000000000E+00
(PID.TID 0000.0001) // =======================================================
(PID.TID 0000.0001) // End MONITOR SEAICE statistics
(PID.TID 0000.0001) // =======================================================
 myIter=            5
(PID.TID 0000.0001) // Model state written, timestep         5
(PID.TID 0000.0001) 
 cg2d: Sum(rhs),rhsMax =   0.00000000000000E+00  0.00000000000000E+00
 cg2d: Sum(rhs),rhsMax =   1.00000000000000E+00  2.45952871586638E-05
(PID.TID 0000.0001) // =======================================================
(PID.TID 0000.0001) // Begin MONITOR dynamic field statistics
(PID.TID 0000.0001) // =======================================================
(PID.TID 0000.0001) %MON g__time_tsnumber             =                     6
(PID.TID 0000.0001) %MON g__time_secondsf             =   2.1600000000000E+04
(PID.TID 0000.0001) %MON g__dynstat_g_eta_max         =   0.0000000000000E+00
(PID.TID 0000.0001) %MON g__dynstat_g_eta_min         =   0.0000000000000E+00
(PID.TID 0000.0001) %MON g__dynstat_g_eta_mean        =   0.0000000000000E+00
(PID.TID 0000.0001) %MON g__dynstat_g_eta_sd          =   0.0000000000000E+00
(PID.TID 0000.0001) %MON g__dynstat_g_eta_del2        =   0.0000000000000E+00
(PID.TID 0000.0001) %MON g__dynstat_g_uvel_max        =   0.0000000000000E+00
(PID.TID 0000.0001) %MON g__dynstat_g_uvel_min        =   0.0000000000000E+00
(PID.TID 0000.0001) %MON g__dynstat_g_uvel_mean       =   0.0000000000000E+00
(PID.TID 0000.0001) %MON g__dynstat_g_uvel_sd         =   0.0000000000000E+00
(PID.TID 0000.0001) %MON g__dynstat_g_uvel_del2       =   0.0000000000000E+00
(PID.TID 0000.0001) %MON g__dynstat_g_vvel_max        =   0.0000000000000E+00
(PID.TID 0000.0001) %MON g__dynstat_g_vvel_min        =   0.0000000000000E+00
(PID.TID 0000.0001) %MON g__dynstat_g_vvel_mean       =   0.0000000000000E+00
(PID.TID 0000.0001) %MON g__dynstat_g_vvel_sd         =   0.0000000000000E+00
(PID.TID 0000.0001) %MON g__dynstat_g_vvel_del2       =   0.0000000000000E+00
(PID.TID 0000.0001) %MON g__dynstat_g_wvel_max        =   0.0000000000000E+00
(PID.TID 0000.0001) %MON g__dynstat_g_wvel_min        =   0.0000000000000E+00
(PID.TID 0000.0001) %MON g__dynstat_g_wvel_mean       =   0.0000000000000E+00
(PID.TID 0000.0001) %MON g__dynstat_g_wvel_sd         =   0.0000000000000E+00
(PID.TID 0000.0001) %MON g__dynstat_g_wvel_del2       =   0.0000000000000E+00
(PID.TID 0000.0001) %MON g__dynstat_g_theta_max       =   0.0000000000000E+00
(PID.TID 0000.0001) %MON g__dynstat_g_theta_min       =   0.0000000000000E+00
(PID.TID 0000.0001) %MON g__dynstat_g_theta_mean      =   0.0000000000000E+00
(PID.TID 0000.0001) %MON g__dynstat_g_theta_sd        =   0.0000000000000E+00
(PID.TID 0000.0001) %MON g__dynstat_g_theta_del2      =   0.0000000000000E+00
(PID.TID 0000.0001) %MON g__dynstat_g_salt_max        =   0.0000000000000E+00
(PID.TID 0000.0001) %MON g__dynstat_g_salt_min        =   0.0000000000000E+00
(PID.TID 0000.0001) %MON g__dynstat_g_salt_mean       =   0.0000000000000E+00
(PID.TID 0000.0001) %MON g__dynstat_g_salt_sd         =   0.0000000000000E+00
(PID.TID 0000.0001) %MON g__dynstat_g_salt_del2       =   0.0000000000000E+00
(PID.TID 0000.0001) %MON g__dynstat_g_sst_max         =   0.0000000000000E+00
(PID.TID 0000.0001) %MON g__dynstat_g_sst_min         =   0.0000000000000E+00
(PID.TID 0000.0001) %MON g__dynstat_g_sst_mean        =   0.0000000000000E+00
(PID.TID 0000.0001) %MON g__dynstat_g_sst_sd          =   0.0000000000000E+00
(PID.TID 0000.0001) %MON g__dynstat_g_sst_del2        =   0.0000000000000E+00
(PID.TID 0000.0001) %MON g__dynstat_g_sss_max         =   0.0000000000000E+00
(PID.TID 0000.0001) %MON g__dynstat_g_sss_min         =   0.0000000000000E+00
(PID.TID 0000.0001) %MON g__dynstat_g_sss_mean        =   0.0000000000000E+00
(PID.TID 0000.0001) %MON g__dynstat_g_sss_sd          =   0.0000000000000E+00
(PID.TID 0000.0001) %MON g__dynstat_g_sss_del2        =   0.0000000000000E+00
(PID.TID 0000.0001) %MON g__forcing_g_qnet_max        =   0.0000000000000E+00
(PID.TID 0000.0001) %MON g__forcing_g_qnet_min        =   0.0000000000000E+00
(PID.TID 0000.0001) %MON g__forcing_g_qnet_mean       =   0.0000000000000E+00
(PID.TID 0000.0001) %MON g__forcing_g_qnet_sd         =   0.0000000000000E+00
(PID.TID 0000.0001) %MON g__forcing_g_qnet_del2       =   0.0000000000000E+00
(PID.TID 0000.0001) %MON g__forcing_g_qsw_max         =   0.0000000000000E+00
(PID.TID 0000.0001) %MON g__forcing_g_qsw_min         =   0.0000000000000E+00
(PID.TID 0000.0001) %MON g__forcing_g_qsw_mean        =   0.0000000000000E+00
(PID.TID 0000.0001) %MON g__forcing_g_qsw_sd          =   0.0000000000000E+00
(PID.TID 0000.0001) %MON g__forcing_g_qsw_del2        =   0.0000000000000E+00
(PID.TID 0000.0001) %MON g__forcing_g_empmr_max       =   0.0000000000000E+00
(PID.TID 0000.0001) %MON g__forcing_g_empmr_min       =   0.0000000000000E+00
(PID.TID 0000.0001) %MON g__forcing_g_empmr_mean      =   0.0000000000000E+00
(PID.TID 0000.0001) %MON g__forcing_g_empmr_sd        =   0.0000000000000E+00
(PID.TID 0000.0001) %MON g__forcing_g_empmr_del2      =   0.0000000000000E+00
(PID.TID 0000.0001) %MON g__forcing_g_fu_max          =   0.0000000000000E+00
(PID.TID 0000.0001) %MON g__forcing_g_fu_min          =   0.0000000000000E+00
(PID.TID 0000.0001) %MON g__forcing_g_fu_mean         =   0.0000000000000E+00
(PID.TID 0000.0001) %MON g__forcing_g_fu_sd           =   0.0000000000000E+00
(PID.TID 0000.0001) %MON g__forcing_g_fu_del2         =   0.0000000000000E+00
(PID.TID 0000.0001) %MON g__forcing_g_fv_max          =   0.0000000000000E+00
(PID.TID 0000.0001) %MON g__forcing_g_fv_min          =   0.0000000000000E+00
(PID.TID 0000.0001) %MON g__forcing_g_fv_mean         =   0.0000000000000E+00
(PID.TID 0000.0001) %MON g__forcing_g_fv_sd           =   0.0000000000000E+00
(PID.TID 0000.0001) %MON g__forcing_g_fv_del2         =   0.0000000000000E+00
(PID.TID 0000.0001) %MON g__g_vcfl_g_uvel_max         =   0.0000000000000E+00
(PID.TID 0000.0001) %MON g__g_vcfl_g_vvel_max         =   0.0000000000000E+00
(PID.TID 0000.0001) %MON g__g_vcfl_g_wvel_max         =   0.0000000000000E+00
(PID.TID 0000.0001) %MON g__g_vcfl_g_W_hf_max         =   0.0000000000000E+00
(PID.TID 0000.0001) // =======================================================
(PID.TID 0000.0001) // End MONITOR dynamic field statistics
(PID.TID 0000.0001) // =======================================================
(PID.TID 0000.0001) // =======================================================
(PID.TID 0000.0001) // Begin MONITOR SEAICE statistics
(PID.TID 0000.0001) // =======================================================
(PID.TID 0000.0001) %MON seaice_tsnumber              =                     6
(PID.TID 0000.0001) %MON seaice_time_sec              =   2.1600000000000E+04
(PID.TID 0000.0001) %MON seaice_uice_max              =   0.0000000000000E+00
(PID.TID 0000.0001) %MON seaice_uice_min              =   0.0000000000000E+00
(PID.TID 0000.0001) %MON seaice_uice_mean             =   0.0000000000000E+00
(PID.TID 0000.0001) %MON seaice_uice_sd               =   0.0000000000000E+00
(PID.TID 0000.0001) %MON seaice_uice_del2             =   0.0000000000000E+00
(PID.TID 0000.0001) %MON seaice_vice_max              =   0.0000000000000E+00
(PID.TID 0000.0001) %MON seaice_vice_min              =   0.0000000000000E+00
(PID.TID 0000.0001) %MON seaice_vice_mean             =   0.0000000000000E+00
(PID.TID 0000.0001) %MON seaice_vice_sd               =   0.0000000000000E+00
(PID.TID 0000.0001) %MON seaice_vice_del2             =   0.0000000000000E+00
(PID.TID 0000.0001) %MON seaice_area_max              =   3.0754474573101E-02
(PID.TID 0000.0001) %MON seaice_area_min              =   3.0754474573101E-02
(PID.TID 0000.0001) %MON seaice_area_mean             =   3.0754474573101E-02
(PID.TID 0000.0001) %MON seaice_area_sd               =   0.0000000000000E+00
(PID.TID 0000.0001) %MON seaice_area_del2             =   0.0000000000000E+00
(PID.TID 0000.0001) %MON seaice_heff_max              =   6.9008494499794E-03
(PID.TID 0000.0001) %MON seaice_heff_min              =   6.9008494499794E-03
(PID.TID 0000.0001) %MON seaice_heff_mean             =   6.9008494499794E-03
(PID.TID 0000.0001) %MON seaice_heff_sd               =   0.0000000000000E+00
(PID.TID 0000.0001) %MON seaice_heff_del2             =   0.0000000000000E+00
(PID.TID 0000.0001) %MON seaice_hsnow_max             =   0.0000000000000E+00
(PID.TID 0000.0001) %MON seaice_hsnow_min             =   0.0000000000000E+00
(PID.TID 0000.0001) %MON seaice_hsnow_mean            =   0.0000000000000E+00
(PID.TID 0000.0001) %MON seaice_hsnow_sd              =   0.0000000000000E+00
(PID.TID 0000.0001) %MON seaice_hsnow_del2            =   0.0000000000000E+00
(PID.TID 0000.0001) %MON seaice_hsalt_max             =   5.4654593398238E+01
(PID.TID 0000.0001) %MON seaice_hsalt_min             =   5.4654593398238E+01
(PID.TID 0000.0001) %MON seaice_hsalt_mean            =   5.4654593398238E+01
(PID.TID 0000.0001) %MON seaice_hsalt_sd              =   0.0000000000000E+00
(PID.TID 0000.0001) %MON seaice_hsalt_del2            =   0.0000000000000E+00
(PID.TID 0000.0001) // =======================================================
(PID.TID 0000.0001) // End MONITOR SEAICE statistics
(PID.TID 0000.0001) // =======================================================
 myIter=            6
(PID.TID 0000.0001) // Model state written, timestep         6
(PID.TID 0000.0001) 
 cg2d: Sum(rhs),rhsMax =   0.00000000000000E+00  0.00000000000000E+00
 cg2d: Sum(rhs),rhsMax =   1.00000000000000E+00  2.65835287231568E-05
(PID.TID 0000.0001) // =======================================================
(PID.TID 0000.0001) // Begin MONITOR dynamic field statistics
(PID.TID 0000.0001) // =======================================================
(PID.TID 0000.0001) %MON g__time_tsnumber             =                     7
(PID.TID 0000.0001) %MON g__time_secondsf             =   2.5200000000000E+04
(PID.TID 0000.0001) %MON g__dynstat_g_eta_max         =   0.0000000000000E+00
(PID.TID 0000.0001) %MON g__dynstat_g_eta_min         =   0.0000000000000E+00
(PID.TID 0000.0001) %MON g__dynstat_g_eta_mean        =   0.0000000000000E+00
(PID.TID 0000.0001) %MON g__dynstat_g_eta_sd          =   0.0000000000000E+00
(PID.TID 0000.0001) %MON g__dynstat_g_eta_del2        =   0.0000000000000E+00
(PID.TID 0000.0001) %MON g__dynstat_g_uvel_max        =   0.0000000000000E+00
(PID.TID 0000.0001) %MON g__dynstat_g_uvel_min        =   0.0000000000000E+00
(PID.TID 0000.0001) %MON g__dynstat_g_uvel_mean       =   0.0000000000000E+00
(PID.TID 0000.0001) %MON g__dynstat_g_uvel_sd         =   0.0000000000000E+00
(PID.TID 0000.0001) %MON g__dynstat_g_uvel_del2       =   0.0000000000000E+00
(PID.TID 0000.0001) %MON g__dynstat_g_vvel_max        =   0.0000000000000E+00
(PID.TID 0000.0001) %MON g__dynstat_g_vvel_min        =   0.0000000000000E+00
(PID.TID 0000.0001) %MON g__dynstat_g_vvel_mean       =   0.0000000000000E+00
(PID.TID 0000.0001) %MON g__dynstat_g_vvel_sd         =   0.0000000000000E+00
(PID.TID 0000.0001) %MON g__dynstat_g_vvel_del2       =   0.0000000000000E+00
(PID.TID 0000.0001) %MON g__dynstat_g_wvel_max        =   0.0000000000000E+00
(PID.TID 0000.0001) %MON g__dynstat_g_wvel_min        =   0.0000000000000E+00
(PID.TID 0000.0001) %MON g__dynstat_g_wvel_mean       =   0.0000000000000E+00
(PID.TID 0000.0001) %MON g__dynstat_g_wvel_sd         =   0.0000000000000E+00
(PID.TID 0000.0001) %MON g__dynstat_g_wvel_del2       =   0.0000000000000E+00
(PID.TID 0000.0001) %MON g__dynstat_g_theta_max       =   0.0000000000000E+00
(PID.TID 0000.0001) %MON g__dynstat_g_theta_min       =   0.0000000000000E+00
(PID.TID 0000.0001) %MON g__dynstat_g_theta_mean      =   0.0000000000000E+00
(PID.TID 0000.0001) %MON g__dynstat_g_theta_sd        =   0.0000000000000E+00
(PID.TID 0000.0001) %MON g__dynstat_g_theta_del2      =   0.0000000000000E+00
(PID.TID 0000.0001) %MON g__dynstat_g_salt_max        =   0.0000000000000E+00
(PID.TID 0000.0001) %MON g__dynstat_g_salt_min        =   0.0000000000000E+00
(PID.TID 0000.0001) %MON g__dynstat_g_salt_mean       =   0.0000000000000E+00
(PID.TID 0000.0001) %MON g__dynstat_g_salt_sd         =   0.0000000000000E+00
(PID.TID 0000.0001) %MON g__dynstat_g_salt_del2       =   0.0000000000000E+00
(PID.TID 0000.0001) %MON g__dynstat_g_sst_max         =   0.0000000000000E+00
(PID.TID 0000.0001) %MON g__dynstat_g_sst_min         =   0.0000000000000E+00
(PID.TID 0000.0001) %MON g__dynstat_g_sst_mean        =   0.0000000000000E+00
(PID.TID 0000.0001) %MON g__dynstat_g_sst_sd          =   0.0000000000000E+00
(PID.TID 0000.0001) %MON g__dynstat_g_sst_del2        =   0.0000000000000E+00
(PID.TID 0000.0001) %MON g__dynstat_g_sss_max         =   0.0000000000000E+00
(PID.TID 0000.0001) %MON g__dynstat_g_sss_min         =   0.0000000000000E+00
(PID.TID 0000.0001) %MON g__dynstat_g_sss_mean        =   0.0000000000000E+00
(PID.TID 0000.0001) %MON g__dynstat_g_sss_sd          =   0.0000000000000E+00
(PID.TID 0000.0001) %MON g__dynstat_g_sss_del2        =   0.0000000000000E+00
(PID.TID 0000.0001) %MON g__forcing_g_qnet_max        =   0.0000000000000E+00
(PID.TID 0000.0001) %MON g__forcing_g_qnet_min        =   0.0000000000000E+00
(PID.TID 0000.0001) %MON g__forcing_g_qnet_mean       =   0.0000000000000E+00
(PID.TID 0000.0001) %MON g__forcing_g_qnet_sd         =   0.0000000000000E+00
(PID.TID 0000.0001) %MON g__forcing_g_qnet_del2       =   0.0000000000000E+00
(PID.TID 0000.0001) %MON g__forcing_g_qsw_max         =   0.0000000000000E+00
(PID.TID 0000.0001) %MON g__forcing_g_qsw_min         =   0.0000000000000E+00
(PID.TID 0000.0001) %MON g__forcing_g_qsw_mean        =   0.0000000000000E+00
(PID.TID 0000.0001) %MON g__forcing_g_qsw_sd          =   0.0000000000000E+00
(PID.TID 0000.0001) %MON g__forcing_g_qsw_del2        =   0.0000000000000E+00
(PID.TID 0000.0001) %MON g__forcing_g_empmr_max       =   0.0000000000000E+00
(PID.TID 0000.0001) %MON g__forcing_g_empmr_min       =   0.0000000000000E+00
(PID.TID 0000.0001) %MON g__forcing_g_empmr_mean      =   0.0000000000000E+00
(PID.TID 0000.0001) %MON g__forcing_g_empmr_sd        =   0.0000000000000E+00
(PID.TID 0000.0001) %MON g__forcing_g_empmr_del2      =   0.0000000000000E+00
(PID.TID 0000.0001) %MON g__forcing_g_fu_max          =   0.0000000000000E+00
(PID.TID 0000.0001) %MON g__forcing_g_fu_min          =   0.0000000000000E+00
(PID.TID 0000.0001) %MON g__forcing_g_fu_mean         =   0.0000000000000E+00
(PID.TID 0000.0001) %MON g__forcing_g_fu_sd           =   0.0000000000000E+00
(PID.TID 0000.0001) %MON g__forcing_g_fu_del2         =   0.0000000000000E+00
(PID.TID 0000.0001) %MON g__forcing_g_fv_max          =   0.0000000000000E+00
(PID.TID 0000.0001) %MON g__forcing_g_fv_min          =   0.0000000000000E+00
(PID.TID 0000.0001) %MON g__forcing_g_fv_mean         =   0.0000000000000E+00
(PID.TID 0000.0001) %MON g__forcing_g_fv_sd           =   0.0000000000000E+00
(PID.TID 0000.0001) %MON g__forcing_g_fv_del2         =   0.0000000000000E+00
(PID.TID 0000.0001) %MON g__g_vcfl_g_uvel_max         =   0.0000000000000E+00
(PID.TID 0000.0001) %MON g__g_vcfl_g_vvel_max         =   0.0000000000000E+00
(PID.TID 0000.0001) %MON g__g_vcfl_g_wvel_max         =   0.0000000000000E+00
(PID.TID 0000.0001) %MON g__g_vcfl_g_W_hf_max         =   0.0000000000000E+00
(PID.TID 0000.0001) // =======================================================
(PID.TID 0000.0001) // End MONITOR dynamic field statistics
(PID.TID 0000.0001) // =======================================================
(PID.TID 0000.0001) // =======================================================
(PID.TID 0000.0001) // Begin MONITOR SEAICE statistics
(PID.TID 0000.0001) // =======================================================
(PID.TID 0000.0001) %MON seaice_tsnumber              =                     7
(PID.TID 0000.0001) %MON seaice_time_sec              =   2.5200000000000E+04
(PID.TID 0000.0001) %MON seaice_uice_max              =   0.0000000000000E+00
(PID.TID 0000.0001) %MON seaice_uice_min              =   0.0000000000000E+00
(PID.TID 0000.0001) %MON seaice_uice_mean             =   0.0000000000000E+00
(PID.TID 0000.0001) %MON seaice_uice_sd               =   0.0000000000000E+00
(PID.TID 0000.0001) %MON seaice_uice_del2             =   0.0000000000000E+00
(PID.TID 0000.0001) %MON seaice_vice_max              =   0.0000000000000E+00
(PID.TID 0000.0001) %MON seaice_vice_min              =   0.0000000000000E+00
(PID.TID 0000.0001) %MON seaice_vice_mean             =   0.0000000000000E+00
(PID.TID 0000.0001) %MON seaice_vice_sd               =   0.0000000000000E+00
(PID.TID 0000.0001) %MON seaice_vice_del2             =   0.0000000000000E+00
(PID.TID 0000.0001) %MON seaice_area_max              =   3.5957970791881E-02
(PID.TID 0000.0001) %MON seaice_area_min              =   3.5957970791881E-02
(PID.TID 0000.0001) %MON seaice_area_mean             =   3.5957970791881E-02
(PID.TID 0000.0001) %MON seaice_area_sd               =   0.0000000000000E+00
(PID.TID 0000.0001) %MON seaice_area_del2             =   0.0000000000000E+00
(PID.TID 0000.0001) %MON seaice_heff_max              =   7.4185489875969E-03
(PID.TID 0000.0001) %MON seaice_heff_min              =   7.4185489875969E-03
(PID.TID 0000.0001) %MON seaice_heff_mean             =   7.4185489875969E-03
(PID.TID 0000.0001) %MON seaice_heff_sd               =   0.0000000000000E+00
(PID.TID 0000.0001) %MON seaice_heff_del2             =   0.0000000000000E+00
(PID.TID 0000.0001) %MON seaice_hsnow_max             =   0.0000000000000E+00
(PID.TID 0000.0001) %MON seaice_hsnow_min             =   0.0000000000000E+00
(PID.TID 0000.0001) %MON seaice_hsnow_mean            =   0.0000000000000E+00
(PID.TID 0000.0001) %MON seaice_hsnow_sd              =   0.0000000000000E+00
(PID.TID 0000.0001) %MON seaice_hsnow_del2            =   0.0000000000000E+00
(PID.TID 0000.0001) %MON seaice_hsalt_max             =   5.8755606391718E+01
(PID.TID 0000.0001) %MON seaice_hsalt_min             =   5.8755606391718E+01
(PID.TID 0000.0001) %MON seaice_hsalt_mean            =   5.8755606391718E+01
(PID.TID 0000.0001) %MON seaice_hsalt_sd              =   0.0000000000000E+00
(PID.TID 0000.0001) %MON seaice_hsalt_del2            =   0.0000000000000E+00
(PID.TID 0000.0001) // =======================================================
(PID.TID 0000.0001) // End MONITOR SEAICE statistics
(PID.TID 0000.0001) // =======================================================
 myIter=            7
(PID.TID 0000.0001) // Model state written, timestep         7
(PID.TID 0000.0001) 
 cg2d: Sum(rhs),rhsMax =   0.00000000000000E+00  0.00000000000000E+00
 cg2d: Sum(rhs),rhsMax =   1.00000000000000E+00  2.82563874062722E-05
(PID.TID 0000.0001) // =======================================================
(PID.TID 0000.0001) // Begin MONITOR dynamic field statistics
(PID.TID 0000.0001) // =======================================================
(PID.TID 0000.0001) %MON g__time_tsnumber             =                     8
(PID.TID 0000.0001) %MON g__time_secondsf             =   2.8800000000000E+04
(PID.TID 0000.0001) %MON g__dynstat_g_eta_max         =   0.0000000000000E+00
(PID.TID 0000.0001) %MON g__dynstat_g_eta_min         =   0.0000000000000E+00
(PID.TID 0000.0001) %MON g__dynstat_g_eta_mean        =   0.0000000000000E+00
(PID.TID 0000.0001) %MON g__dynstat_g_eta_sd          =   0.0000000000000E+00
(PID.TID 0000.0001) %MON g__dynstat_g_eta_del2        =   0.0000000000000E+00
(PID.TID 0000.0001) %MON g__dynstat_g_uvel_max        =   0.0000000000000E+00
(PID.TID 0000.0001) %MON g__dynstat_g_uvel_min        =   0.0000000000000E+00
(PID.TID 0000.0001) %MON g__dynstat_g_uvel_mean       =   0.0000000000000E+00
(PID.TID 0000.0001) %MON g__dynstat_g_uvel_sd         =   0.0000000000000E+00
(PID.TID 0000.0001) %MON g__dynstat_g_uvel_del2       =   0.0000000000000E+00
(PID.TID 0000.0001) %MON g__dynstat_g_vvel_max        =   0.0000000000000E+00
(PID.TID 0000.0001) %MON g__dynstat_g_vvel_min        =   0.0000000000000E+00
(PID.TID 0000.0001) %MON g__dynstat_g_vvel_mean       =   0.0000000000000E+00
(PID.TID 0000.0001) %MON g__dynstat_g_vvel_sd         =   0.0000000000000E+00
(PID.TID 0000.0001) %MON g__dynstat_g_vvel_del2       =   0.0000000000000E+00
(PID.TID 0000.0001) %MON g__dynstat_g_wvel_max        =   0.0000000000000E+00
(PID.TID 0000.0001) %MON g__dynstat_g_wvel_min        =   0.0000000000000E+00
(PID.TID 0000.0001) %MON g__dynstat_g_wvel_mean       =   0.0000000000000E+00
(PID.TID 0000.0001) %MON g__dynstat_g_wvel_sd         =   0.0000000000000E+00
(PID.TID 0000.0001) %MON g__dynstat_g_wvel_del2       =   0.0000000000000E+00
(PID.TID 0000.0001) %MON g__dynstat_g_theta_max       =   0.0000000000000E+00
(PID.TID 0000.0001) %MON g__dynstat_g_theta_min       =   0.0000000000000E+00
(PID.TID 0000.0001) %MON g__dynstat_g_theta_mean      =   0.0000000000000E+00
(PID.TID 0000.0001) %MON g__dynstat_g_theta_sd        =   0.0000000000000E+00
(PID.TID 0000.0001) %MON g__dynstat_g_theta_del2      =   0.0000000000000E+00
(PID.TID 0000.0001) %MON g__dynstat_g_salt_max        =   0.0000000000000E+00
(PID.TID 0000.0001) %MON g__dynstat_g_salt_min        =   0.0000000000000E+00
(PID.TID 0000.0001) %MON g__dynstat_g_salt_mean       =   0.0000000000000E+00
(PID.TID 0000.0001) %MON g__dynstat_g_salt_sd         =   0.0000000000000E+00
(PID.TID 0000.0001) %MON g__dynstat_g_salt_del2       =   0.0000000000000E+00
(PID.TID 0000.0001) %MON g__dynstat_g_sst_max         =   0.0000000000000E+00
(PID.TID 0000.0001) %MON g__dynstat_g_sst_min         =   0.0000000000000E+00
(PID.TID 0000.0001) %MON g__dynstat_g_sst_mean        =   0.0000000000000E+00
(PID.TID 0000.0001) %MON g__dynstat_g_sst_sd          =   0.0000000000000E+00
(PID.TID 0000.0001) %MON g__dynstat_g_sst_del2        =   0.0000000000000E+00
(PID.TID 0000.0001) %MON g__dynstat_g_sss_max         =   0.0000000000000E+00
(PID.TID 0000.0001) %MON g__dynstat_g_sss_min         =   0.0000000000000E+00
(PID.TID 0000.0001) %MON g__dynstat_g_sss_mean        =   0.0000000000000E+00
(PID.TID 0000.0001) %MON g__dynstat_g_sss_sd          =   0.0000000000000E+00
(PID.TID 0000.0001) %MON g__dynstat_g_sss_del2        =   0.0000000000000E+00
(PID.TID 0000.0001) %MON g__forcing_g_qnet_max        =   0.0000000000000E+00
(PID.TID 0000.0001) %MON g__forcing_g_qnet_min        =   0.0000000000000E+00
(PID.TID 0000.0001) %MON g__forcing_g_qnet_mean       =   0.0000000000000E+00
(PID.TID 0000.0001) %MON g__forcing_g_qnet_sd         =   0.0000000000000E+00
(PID.TID 0000.0001) %MON g__forcing_g_qnet_del2       =   0.0000000000000E+00
(PID.TID 0000.0001) %MON g__forcing_g_qsw_max         =   0.0000000000000E+00
(PID.TID 0000.0001) %MON g__forcing_g_qsw_min         =   0.0000000000000E+00
(PID.TID 0000.0001) %MON g__forcing_g_qsw_mean        =   0.0000000000000E+00
(PID.TID 0000.0001) %MON g__forcing_g_qsw_sd          =   0.0000000000000E+00
(PID.TID 0000.0001) %MON g__forcing_g_qsw_del2        =   0.0000000000000E+00
(PID.TID 0000.0001) %MON g__forcing_g_empmr_max       =   0.0000000000000E+00
(PID.TID 0000.0001) %MON g__forcing_g_empmr_min       =   0.0000000000000E+00
(PID.TID 0000.0001) %MON g__forcing_g_empmr_mean      =   0.0000000000000E+00
(PID.TID 0000.0001) %MON g__forcing_g_empmr_sd        =   0.0000000000000E+00
(PID.TID 0000.0001) %MON g__forcing_g_empmr_del2      =   0.0000000000000E+00
(PID.TID 0000.0001) %MON g__forcing_g_fu_max          =   0.0000000000000E+00
(PID.TID 0000.0001) %MON g__forcing_g_fu_min          =   0.0000000000000E+00
(PID.TID 0000.0001) %MON g__forcing_g_fu_mean         =   0.0000000000000E+00
(PID.TID 0000.0001) %MON g__forcing_g_fu_sd           =   0.0000000000000E+00
(PID.TID 0000.0001) %MON g__forcing_g_fu_del2         =   0.0000000000000E+00
(PID.TID 0000.0001) %MON g__forcing_g_fv_max          =   0.0000000000000E+00
(PID.TID 0000.0001) %MON g__forcing_g_fv_min          =   0.0000000000000E+00
(PID.TID 0000.0001) %MON g__forcing_g_fv_mean         =   0.0000000000000E+00
(PID.TID 0000.0001) %MON g__forcing_g_fv_sd           =   0.0000000000000E+00
(PID.TID 0000.0001) %MON g__forcing_g_fv_del2         =   0.0000000000000E+00
(PID.TID 0000.0001) %MON g__g_vcfl_g_uvel_max         =   0.0000000000000E+00
(PID.TID 0000.0001) %MON g__g_vcfl_g_vvel_max         =   0.0000000000000E+00
(PID.TID 0000.0001) %MON g__g_vcfl_g_wvel_max         =   0.0000000000000E+00
(PID.TID 0000.0001) %MON g__g_vcfl_g_W_hf_max         =   0.0000000000000E+00
(PID.TID 0000.0001) // =======================================================
(PID.TID 0000.0001) // End MONITOR dynamic field statistics
(PID.TID 0000.0001) // =======================================================
(PID.TID 0000.0001) // =======================================================
(PID.TID 0000.0001) // Begin MONITOR SEAICE statistics
(PID.TID 0000.0001) // =======================================================
(PID.TID 0000.0001) %MON seaice_tsnumber              =                     8
(PID.TID 0000.0001) %MON seaice_time_sec              =   2.8800000000000E+04
(PID.TID 0000.0001) %MON seaice_uice_max              =   0.0000000000000E+00
(PID.TID 0000.0001) %MON seaice_uice_min              =   0.0000000000000E+00
(PID.TID 0000.0001) %MON seaice_uice_mean             =   0.0000000000000E+00
(PID.TID 0000.0001) %MON seaice_uice_sd               =   0.0000000000000E+00
(PID.TID 0000.0001) %MON seaice_uice_del2             =   0.0000000000000E+00
(PID.TID 0000.0001) %MON seaice_vice_max              =   0.0000000000000E+00
(PID.TID 0000.0001) %MON seaice_vice_min              =   0.0000000000000E+00
(PID.TID 0000.0001) %MON seaice_vice_mean             =   0.0000000000000E+00
(PID.TID 0000.0001) %MON seaice_vice_sd               =   0.0000000000000E+00
(PID.TID 0000.0001) %MON seaice_vice_del2             =   0.0000000000000E+00
(PID.TID 0000.0001) %MON seaice_area_max              =   4.1055156373678E-02
(PID.TID 0000.0001) %MON seaice_area_min              =   4.1055156373678E-02
(PID.TID 0000.0001) %MON seaice_area_mean             =   4.1055156373678E-02
(PID.TID 0000.0001) %MON seaice_area_sd               =   0.0000000000000E+00
(PID.TID 0000.0001) %MON seaice_area_del2             =   0.0000000000000E+00
(PID.TID 0000.0001) %MON seaice_heff_max              =   7.8419590356597E-03
(PID.TID 0000.0001) %MON seaice_heff_min              =   7.8419590356597E-03
(PID.TID 0000.0001) %MON seaice_heff_mean             =   7.8419590356597E-03
(PID.TID 0000.0001) %MON seaice_heff_sd               =   0.0000000000000E+00
(PID.TID 0000.0001) %MON seaice_heff_del2             =   0.0000000000000E+00
(PID.TID 0000.0001) %MON seaice_hsnow_max             =   0.0000000000000E+00
(PID.TID 0000.0001) %MON seaice_hsnow_min             =   0.0000000000000E+00
(PID.TID 0000.0001) %MON seaice_hsnow_mean            =   0.0000000000000E+00
(PID.TID 0000.0001) %MON seaice_hsnow_sd              =   0.0000000000000E+00
(PID.TID 0000.0001) %MON seaice_hsnow_del2            =   0.0000000000000E+00
(PID.TID 0000.0001) %MON seaice_hsalt_max             =   6.2109822577408E+01
(PID.TID 0000.0001) %MON seaice_hsalt_min             =   6.2109822577408E+01
(PID.TID 0000.0001) %MON seaice_hsalt_mean            =   6.2109822577408E+01
(PID.TID 0000.0001) %MON seaice_hsalt_sd              =   0.0000000000000E+00
(PID.TID 0000.0001) %MON seaice_hsalt_del2            =   0.0000000000000E+00
(PID.TID 0000.0001) // =======================================================
(PID.TID 0000.0001) // End MONITOR SEAICE statistics
(PID.TID 0000.0001) // =======================================================
 myIter=            8
(PID.TID 0000.0001) // Model state written, timestep         8
(PID.TID 0000.0001) 
 cg2d: Sum(rhs),rhsMax =   0.00000000000000E+00  0.00000000000000E+00
 cg2d: Sum(rhs),rhsMax =   1.00000000000000E+00  2.96382495632280E-05
(PID.TID 0000.0001) // =======================================================
(PID.TID 0000.0001) // Begin MONITOR dynamic field statistics
(PID.TID 0000.0001) // =======================================================
(PID.TID 0000.0001) %MON g__time_tsnumber             =                     9
(PID.TID 0000.0001) %MON g__time_secondsf             =   3.2400000000000E+04
(PID.TID 0000.0001) %MON g__dynstat_g_eta_max         =   0.0000000000000E+00
(PID.TID 0000.0001) %MON g__dynstat_g_eta_min         =   0.0000000000000E+00
(PID.TID 0000.0001) %MON g__dynstat_g_eta_mean        =   0.0000000000000E+00
(PID.TID 0000.0001) %MON g__dynstat_g_eta_sd          =   0.0000000000000E+00
(PID.TID 0000.0001) %MON g__dynstat_g_eta_del2        =   0.0000000000000E+00
(PID.TID 0000.0001) %MON g__dynstat_g_uvel_max        =   0.0000000000000E+00
(PID.TID 0000.0001) %MON g__dynstat_g_uvel_min        =   0.0000000000000E+00
(PID.TID 0000.0001) %MON g__dynstat_g_uvel_mean       =   0.0000000000000E+00
(PID.TID 0000.0001) %MON g__dynstat_g_uvel_sd         =   0.0000000000000E+00
(PID.TID 0000.0001) %MON g__dynstat_g_uvel_del2       =   0.0000000000000E+00
(PID.TID 0000.0001) %MON g__dynstat_g_vvel_max        =   0.0000000000000E+00
(PID.TID 0000.0001) %MON g__dynstat_g_vvel_min        =   0.0000000000000E+00
(PID.TID 0000.0001) %MON g__dynstat_g_vvel_mean       =   0.0000000000000E+00
(PID.TID 0000.0001) %MON g__dynstat_g_vvel_sd         =   0.0000000000000E+00
(PID.TID 0000.0001) %MON g__dynstat_g_vvel_del2       =   0.0000000000000E+00
(PID.TID 0000.0001) %MON g__dynstat_g_wvel_max        =   0.0000000000000E+00
(PID.TID 0000.0001) %MON g__dynstat_g_wvel_min        =   0.0000000000000E+00
(PID.TID 0000.0001) %MON g__dynstat_g_wvel_mean       =   0.0000000000000E+00
(PID.TID 0000.0001) %MON g__dynstat_g_wvel_sd         =   0.0000000000000E+00
(PID.TID 0000.0001) %MON g__dynstat_g_wvel_del2       =   0.0000000000000E+00
(PID.TID 0000.0001) %MON g__dynstat_g_theta_max       =   0.0000000000000E+00
(PID.TID 0000.0001) %MON g__dynstat_g_theta_min       =   0.0000000000000E+00
(PID.TID 0000.0001) %MON g__dynstat_g_theta_mean      =   0.0000000000000E+00
(PID.TID 0000.0001) %MON g__dynstat_g_theta_sd        =   0.0000000000000E+00
(PID.TID 0000.0001) %MON g__dynstat_g_theta_del2      =   0.0000000000000E+00
(PID.TID 0000.0001) %MON g__dynstat_g_salt_max        =   0.0000000000000E+00
(PID.TID 0000.0001) %MON g__dynstat_g_salt_min        =   0.0000000000000E+00
(PID.TID 0000.0001) %MON g__dynstat_g_salt_mean       =   0.0000000000000E+00
(PID.TID 0000.0001) %MON g__dynstat_g_salt_sd         =   0.0000000000000E+00
(PID.TID 0000.0001) %MON g__dynstat_g_salt_del2       =   0.0000000000000E+00
(PID.TID 0000.0001) %MON g__dynstat_g_sst_max         =   0.0000000000000E+00
(PID.TID 0000.0001) %MON g__dynstat_g_sst_min         =   0.0000000000000E+00
(PID.TID 0000.0001) %MON g__dynstat_g_sst_mean        =   0.0000000000000E+00
(PID.TID 0000.0001) %MON g__dynstat_g_sst_sd          =   0.0000000000000E+00
(PID.TID 0000.0001) %MON g__dynstat_g_sst_del2        =   0.0000000000000E+00
(PID.TID 0000.0001) %MON g__dynstat_g_sss_max         =   0.0000000000000E+00
(PID.TID 0000.0001) %MON g__dynstat_g_sss_min         =   0.0000000000000E+00
(PID.TID 0000.0001) %MON g__dynstat_g_sss_mean        =   0.0000000000000E+00
(PID.TID 0000.0001) %MON g__dynstat_g_sss_sd          =   0.0000000000000E+00
(PID.TID 0000.0001) %MON g__dynstat_g_sss_del2        =   0.0000000000000E+00
(PID.TID 0000.0001) %MON g__forcing_g_qnet_max        =   0.0000000000000E+00
(PID.TID 0000.0001) %MON g__forcing_g_qnet_min        =   0.0000000000000E+00
(PID.TID 0000.0001) %MON g__forcing_g_qnet_mean       =   0.0000000000000E+00
(PID.TID 0000.0001) %MON g__forcing_g_qnet_sd         =   0.0000000000000E+00
(PID.TID 0000.0001) %MON g__forcing_g_qnet_del2       =   0.0000000000000E+00
(PID.TID 0000.0001) %MON g__forcing_g_qsw_max         =   0.0000000000000E+00
(PID.TID 0000.0001) %MON g__forcing_g_qsw_min         =   0.0000000000000E+00
(PID.TID 0000.0001) %MON g__forcing_g_qsw_mean        =   0.0000000000000E+00
(PID.TID 0000.0001) %MON g__forcing_g_qsw_sd          =   0.0000000000000E+00
(PID.TID 0000.0001) %MON g__forcing_g_qsw_del2        =   0.0000000000000E+00
(PID.TID 0000.0001) %MON g__forcing_g_empmr_max       =   0.0000000000000E+00
(PID.TID 0000.0001) %MON g__forcing_g_empmr_min       =   0.0000000000000E+00
(PID.TID 0000.0001) %MON g__forcing_g_empmr_mean      =   0.0000000000000E+00
(PID.TID 0000.0001) %MON g__forcing_g_empmr_sd        =   0.0000000000000E+00
(PID.TID 0000.0001) %MON g__forcing_g_empmr_del2      =   0.0000000000000E+00
(PID.TID 0000.0001) %MON g__forcing_g_fu_max          =   0.0000000000000E+00
(PID.TID 0000.0001) %MON g__forcing_g_fu_min          =   0.0000000000000E+00
(PID.TID 0000.0001) %MON g__forcing_g_fu_mean         =   0.0000000000000E+00
(PID.TID 0000.0001) %MON g__forcing_g_fu_sd           =   0.0000000000000E+00
(PID.TID 0000.0001) %MON g__forcing_g_fu_del2         =   0.0000000000000E+00
(PID.TID 0000.0001) %MON g__forcing_g_fv_max          =   0.0000000000000E+00
(PID.TID 0000.0001) %MON g__forcing_g_fv_min          =   0.0000000000000E+00
(PID.TID 0000.0001) %MON g__forcing_g_fv_mean         =   0.0000000000000E+00
(PID.TID 0000.0001) %MON g__forcing_g_fv_sd           =   0.0000000000000E+00
(PID.TID 0000.0001) %MON g__forcing_g_fv_del2         =   0.0000000000000E+00
(PID.TID 0000.0001) %MON g__g_vcfl_g_uvel_max         =   0.0000000000000E+00
(PID.TID 0000.0001) %MON g__g_vcfl_g_vvel_max         =   0.0000000000000E+00
(PID.TID 0000.0001) %MON g__g_vcfl_g_wvel_max         =   0.0000000000000E+00
(PID.TID 0000.0001) %MON g__g_vcfl_g_W_hf_max         =   0.0000000000000E+00
(PID.TID 0000.0001) // =======================================================
(PID.TID 0000.0001) // End MONITOR dynamic field statistics
(PID.TID 0000.0001) // =======================================================
(PID.TID 0000.0001) // =======================================================
(PID.TID 0000.0001) // Begin MONITOR SEAICE statistics
(PID.TID 0000.0001) // =======================================================
(PID.TID 0000.0001) %MON seaice_tsnumber              =                     9
(PID.TID 0000.0001) %MON seaice_time_sec              =   3.2400000000000E+04
(PID.TID 0000.0001) %MON seaice_uice_max              =   0.0000000000000E+00
(PID.TID 0000.0001) %MON seaice_uice_min              =   0.0000000000000E+00
(PID.TID 0000.0001) %MON seaice_uice_mean             =   0.0000000000000E+00
(PID.TID 0000.0001) %MON seaice_uice_sd               =   0.0000000000000E+00
(PID.TID 0000.0001) %MON seaice_uice_del2             =   0.0000000000000E+00
(PID.TID 0000.0001) %MON seaice_vice_max              =   0.0000000000000E+00
(PID.TID 0000.0001) %MON seaice_vice_min              =   0.0000000000000E+00
(PID.TID 0000.0001) %MON seaice_vice_mean             =   0.0000000000000E+00
(PID.TID 0000.0001) %MON seaice_vice_sd               =   0.0000000000000E+00
(PID.TID 0000.0001) %MON seaice_vice_del2             =   0.0000000000000E+00
(PID.TID 0000.0001) %MON seaice_area_max              =   4.6044929244152E-02
(PID.TID 0000.0001) %MON seaice_area_min              =   4.6044929244152E-02
(PID.TID 0000.0001) %MON seaice_area_mean             =   4.6044929244152E-02
(PID.TID 0000.0001) %MON seaice_area_sd               =   0.0000000000000E+00
(PID.TID 0000.0001) %MON seaice_area_del2             =   0.0000000000000E+00
(PID.TID 0000.0001) %MON seaice_heff_max              =   8.1783948387871E-03
(PID.TID 0000.0001) %MON seaice_heff_min              =   8.1783948387871E-03
(PID.TID 0000.0001) %MON seaice_heff_mean             =   8.1783948387871E-03
(PID.TID 0000.0001) %MON seaice_heff_sd               =   0.0000000000000E+00
(PID.TID 0000.0001) %MON seaice_heff_del2             =   0.0000000000000E+00
(PID.TID 0000.0001) %MON seaice_hsnow_max             =   0.0000000000000E+00
(PID.TID 0000.0001) %MON seaice_hsnow_min             =   0.0000000000000E+00
(PID.TID 0000.0001) %MON seaice_hsnow_mean            =   0.0000000000000E+00
(PID.TID 0000.0001) %MON seaice_hsnow_sd              =   0.0000000000000E+00
(PID.TID 0000.0001) %MON seaice_hsnow_del2            =   0.0000000000000E+00
(PID.TID 0000.0001) %MON seaice_hsalt_max             =   6.4775131916463E+01
(PID.TID 0000.0001) %MON seaice_hsalt_min             =   6.4775131916463E+01
(PID.TID 0000.0001) %MON seaice_hsalt_mean            =   6.4775131916463E+01
(PID.TID 0000.0001) %MON seaice_hsalt_sd              =   0.0000000000000E+00
(PID.TID 0000.0001) %MON seaice_hsalt_del2            =   0.0000000000000E+00
(PID.TID 0000.0001) // =======================================================
(PID.TID 0000.0001) // End MONITOR SEAICE statistics
(PID.TID 0000.0001) // =======================================================
 myIter=            9
(PID.TID 0000.0001) // Model state written, timestep         9
(PID.TID 0000.0001) 
 cg2d: Sum(rhs),rhsMax =   0.00000000000000E+00  0.00000000000000E+00
 cg2d: Sum(rhs),rhsMax =   1.00000000000000E+00  3.06558785220526E-05
(PID.TID 0000.0001) // =======================================================
(PID.TID 0000.0001) // Begin MONITOR dynamic field statistics
(PID.TID 0000.0001) // =======================================================
(PID.TID 0000.0001) %MON g__time_tsnumber             =                    10
(PID.TID 0000.0001) %MON g__time_secondsf             =   3.6000000000000E+04
(PID.TID 0000.0001) %MON g__dynstat_g_eta_max         =   0.0000000000000E+00
(PID.TID 0000.0001) %MON g__dynstat_g_eta_min         =   0.0000000000000E+00
(PID.TID 0000.0001) %MON g__dynstat_g_eta_mean        =   0.0000000000000E+00
(PID.TID 0000.0001) %MON g__dynstat_g_eta_sd          =   0.0000000000000E+00
(PID.TID 0000.0001) %MON g__dynstat_g_eta_del2        =   0.0000000000000E+00
(PID.TID 0000.0001) %MON g__dynstat_g_uvel_max        =   0.0000000000000E+00
(PID.TID 0000.0001) %MON g__dynstat_g_uvel_min        =   0.0000000000000E+00
(PID.TID 0000.0001) %MON g__dynstat_g_uvel_mean       =   0.0000000000000E+00
(PID.TID 0000.0001) %MON g__dynstat_g_uvel_sd         =   0.0000000000000E+00
(PID.TID 0000.0001) %MON g__dynstat_g_uvel_del2       =   0.0000000000000E+00
(PID.TID 0000.0001) %MON g__dynstat_g_vvel_max        =   0.0000000000000E+00
(PID.TID 0000.0001) %MON g__dynstat_g_vvel_min        =   0.0000000000000E+00
(PID.TID 0000.0001) %MON g__dynstat_g_vvel_mean       =   0.0000000000000E+00
(PID.TID 0000.0001) %MON g__dynstat_g_vvel_sd         =   0.0000000000000E+00
(PID.TID 0000.0001) %MON g__dynstat_g_vvel_del2       =   0.0000000000000E+00
(PID.TID 0000.0001) %MON g__dynstat_g_wvel_max        =   0.0000000000000E+00
(PID.TID 0000.0001) %MON g__dynstat_g_wvel_min        =   0.0000000000000E+00
(PID.TID 0000.0001) %MON g__dynstat_g_wvel_mean       =   0.0000000000000E+00
(PID.TID 0000.0001) %MON g__dynstat_g_wvel_sd         =   0.0000000000000E+00
(PID.TID 0000.0001) %MON g__dynstat_g_wvel_del2       =   0.0000000000000E+00
(PID.TID 0000.0001) %MON g__dynstat_g_theta_max       =   0.0000000000000E+00
(PID.TID 0000.0001) %MON g__dynstat_g_theta_min       =   0.0000000000000E+00
(PID.TID 0000.0001) %MON g__dynstat_g_theta_mean      =   0.0000000000000E+00
(PID.TID 0000.0001) %MON g__dynstat_g_theta_sd        =   0.0000000000000E+00
(PID.TID 0000.0001) %MON g__dynstat_g_theta_del2      =   0.0000000000000E+00
(PID.TID 0000.0001) %MON g__dynstat_g_salt_max        =   0.0000000000000E+00
(PID.TID 0000.0001) %MON g__dynstat_g_salt_min        =   0.0000000000000E+00
(PID.TID 0000.0001) %MON g__dynstat_g_salt_mean       =   0.0000000000000E+00
(PID.TID 0000.0001) %MON g__dynstat_g_salt_sd         =   0.0000000000000E+00
(PID.TID 0000.0001) %MON g__dynstat_g_salt_del2       =   0.0000000000000E+00
(PID.TID 0000.0001) %MON g__dynstat_g_sst_max         =   0.0000000000000E+00
(PID.TID 0000.0001) %MON g__dynstat_g_sst_min         =   0.0000000000000E+00
(PID.TID 0000.0001) %MON g__dynstat_g_sst_mean        =   0.0000000000000E+00
(PID.TID 0000.0001) %MON g__dynstat_g_sst_sd          =   0.0000000000000E+00
(PID.TID 0000.0001) %MON g__dynstat_g_sst_del2        =   0.0000000000000E+00
(PID.TID 0000.0001) %MON g__dynstat_g_sss_max         =   0.0000000000000E+00
(PID.TID 0000.0001) %MON g__dynstat_g_sss_min         =   0.0000000000000E+00
(PID.TID 0000.0001) %MON g__dynstat_g_sss_mean        =   0.0000000000000E+00
(PID.TID 0000.0001) %MON g__dynstat_g_sss_sd          =   0.0000000000000E+00
(PID.TID 0000.0001) %MON g__dynstat_g_sss_del2        =   0.0000000000000E+00
(PID.TID 0000.0001) %MON g__forcing_g_qnet_max        =   0.0000000000000E+00
(PID.TID 0000.0001) %MON g__forcing_g_qnet_min        =   0.0000000000000E+00
(PID.TID 0000.0001) %MON g__forcing_g_qnet_mean       =   0.0000000000000E+00
(PID.TID 0000.0001) %MON g__forcing_g_qnet_sd         =   0.0000000000000E+00
(PID.TID 0000.0001) %MON g__forcing_g_qnet_del2       =   0.0000000000000E+00
(PID.TID 0000.0001) %MON g__forcing_g_qsw_max         =   0.0000000000000E+00
(PID.TID 0000.0001) %MON g__forcing_g_qsw_min         =   0.0000000000000E+00
(PID.TID 0000.0001) %MON g__forcing_g_qsw_mean        =   0.0000000000000E+00
(PID.TID 0000.0001) %MON g__forcing_g_qsw_sd          =   0.0000000000000E+00
(PID.TID 0000.0001) %MON g__forcing_g_qsw_del2        =   0.0000000000000E+00
(PID.TID 0000.0001) %MON g__forcing_g_empmr_max       =   0.0000000000000E+00
(PID.TID 0000.0001) %MON g__forcing_g_empmr_min       =   0.0000000000000E+00
(PID.TID 0000.0001) %MON g__forcing_g_empmr_mean      =   0.0000000000000E+00
(PID.TID 0000.0001) %MON g__forcing_g_empmr_sd        =   0.0000000000000E+00
(PID.TID 0000.0001) %MON g__forcing_g_empmr_del2      =   0.0000000000000E+00
(PID.TID 0000.0001) %MON g__forcing_g_fu_max          =   0.0000000000000E+00
(PID.TID 0000.0001) %MON g__forcing_g_fu_min          =   0.0000000000000E+00
(PID.TID 0000.0001) %MON g__forcing_g_fu_mean         =   0.0000000000000E+00
(PID.TID 0000.0001) %MON g__forcing_g_fu_sd           =   0.0000000000000E+00
(PID.TID 0000.0001) %MON g__forcing_g_fu_del2         =   0.0000000000000E+00
(PID.TID 0000.0001) %MON g__forcing_g_fv_max          =   0.0000000000000E+00
(PID.TID 0000.0001) %MON g__forcing_g_fv_min          =   0.0000000000000E+00
(PID.TID 0000.0001) %MON g__forcing_g_fv_mean         =   0.0000000000000E+00
(PID.TID 0000.0001) %MON g__forcing_g_fv_sd           =   0.0000000000000E+00
(PID.TID 0000.0001) %MON g__forcing_g_fv_del2         =   0.0000000000000E+00
(PID.TID 0000.0001) %MON g__g_vcfl_g_uvel_max         =   0.0000000000000E+00
(PID.TID 0000.0001) %MON g__g_vcfl_g_vvel_max         =   0.0000000000000E+00
(PID.TID 0000.0001) %MON g__g_vcfl_g_wvel_max         =   0.0000000000000E+00
(PID.TID 0000.0001) %MON g__g_vcfl_g_W_hf_max         =   0.0000000000000E+00
(PID.TID 0000.0001) // =======================================================
(PID.TID 0000.0001) // End MONITOR dynamic field statistics
(PID.TID 0000.0001) // =======================================================
(PID.TID 0000.0001) // =======================================================
(PID.TID 0000.0001) // Begin MONITOR SEAICE statistics
(PID.TID 0000.0001) // =======================================================
(PID.TID 0000.0001) %MON seaice_tsnumber              =                    10
(PID.TID 0000.0001) %MON seaice_time_sec              =   3.6000000000000E+04
(PID.TID 0000.0001) %MON seaice_uice_max              =   0.0000000000000E+00
(PID.TID 0000.0001) %MON seaice_uice_min              =   0.0000000000000E+00
(PID.TID 0000.0001) %MON seaice_uice_mean             =   0.0000000000000E+00
(PID.TID 0000.0001) %MON seaice_uice_sd               =   0.0000000000000E+00
(PID.TID 0000.0001) %MON seaice_uice_del2             =   0.0000000000000E+00
(PID.TID 0000.0001) %MON seaice_vice_max              =   0.0000000000000E+00
(PID.TID 0000.0001) %MON seaice_vice_min              =   0.0000000000000E+00
(PID.TID 0000.0001) %MON seaice_vice_mean             =   0.0000000000000E+00
(PID.TID 0000.0001) %MON seaice_vice_sd               =   0.0000000000000E+00
(PID.TID 0000.0001) %MON seaice_vice_del2             =   0.0000000000000E+00
(PID.TID 0000.0001) %MON seaice_area_max              =   5.0920356630623E-02
(PID.TID 0000.0001) %MON seaice_area_min              =   5.0920356630623E-02
(PID.TID 0000.0001) %MON seaice_area_mean             =   5.0920356630623E-02
(PID.TID 0000.0001) %MON seaice_area_sd               =   0.0000000000000E+00
(PID.TID 0000.0001) %MON seaice_area_del2             =   0.0000000000000E+00
(PID.TID 0000.0001) %MON seaice_heff_max              =   8.4058523858075E-03
(PID.TID 0000.0001) %MON seaice_heff_min              =   8.4058523858075E-03
(PID.TID 0000.0001) %MON seaice_heff_mean             =   8.4058523858075E-03
(PID.TID 0000.0001) %MON seaice_heff_sd               =   0.0000000000000E+00
(PID.TID 0000.0001) %MON seaice_heff_del2             =   0.0000000000000E+00
(PID.TID 0000.0001) %MON seaice_hsnow_max             =   0.0000000000000E+00
(PID.TID 0000.0001) %MON seaice_hsnow_min             =   0.0000000000000E+00
(PID.TID 0000.0001) %MON seaice_hsnow_mean            =   0.0000000000000E+00
(PID.TID 0000.0001) %MON seaice_hsnow_sd              =   0.0000000000000E+00
(PID.TID 0000.0001) %MON seaice_hsnow_del2            =   0.0000000000000E+00
(PID.TID 0000.0001) %MON seaice_hsalt_max             =   6.6577158688473E+01
(PID.TID 0000.0001) %MON seaice_hsalt_min             =   6.6577158688473E+01
(PID.TID 0000.0001) %MON seaice_hsalt_mean            =   6.6577158688473E+01
(PID.TID 0000.0001) %MON seaice_hsalt_sd              =   0.0000000000000E+00
(PID.TID 0000.0001) %MON seaice_hsalt_del2            =   0.0000000000000E+00
(PID.TID 0000.0001) // =======================================================
(PID.TID 0000.0001) // End MONITOR SEAICE statistics
(PID.TID 0000.0001) // =======================================================
(PID.TID 0000.0001) %CHECKPOINT        10 ckptA
 ph-pack: packing ecco_cost
 ph-check entering grdchk_main 
 ph-check fcref =    691935.67110343161     
grad-res -------------------------------
 grad-res  proc    #    i    j    k   bi   bj iobc               fc ref           fc + eps           fc - eps
 grad-res  proc    #    i    j    k   bi   bj iobc             tlm grad            fd grad         1 - fd/tlm
 grad-res exact position met: 
 grad-res     0    1    1    1    1    1    1
 ph-test icomp, ncvarcomp, ichknum            1          23           1
 ph-grd _loc: bi, bj, icomptest, ichknum            1           1           0           1
 ph-grd -->hit<--            1           1           1           1
(PID.TID 0000.0001) 
(PID.TID 0000.0001)  cal_TimeStamp: iter =          0 time =  0.00000000E+00
(PID.TID 0000.0001)                 date =   19790101           0
(PID.TID 0000.0001) 
(PID.TID 0000.0001) INI_CG2D: CG2D normalisation factor =  1.9483302809492266E-03
(PID.TID 0000.0001) 
(PID.TID 0000.0001) Start initial hydrostatic pressure computation
(PID.TID 0000.0001) Pressure is predetermined for buoyancyRelation OCEANIC
(PID.TID 0000.0001) 
(PID.TID 0000.0001) // =======================================================
(PID.TID 0000.0001) // Model current state
(PID.TID 0000.0001) // =======================================================
(PID.TID 0000.0001) 
(PID.TID 0000.0001) // =======================================================
(PID.TID 0000.0001) // Begin MONITOR dynamic field statistics
(PID.TID 0000.0001) // =======================================================
(PID.TID 0000.0001) %MON g__time_tsnumber             =                     0
(PID.TID 0000.0001) %MON g__time_secondsf             =   0.0000000000000E+00
(PID.TID 0000.0001) %MON g__dynstat_g_eta_max         =   0.0000000000000E+00
(PID.TID 0000.0001) %MON g__dynstat_g_eta_min         =   0.0000000000000E+00
(PID.TID 0000.0001) %MON g__dynstat_g_eta_mean        =   0.0000000000000E+00
(PID.TID 0000.0001) %MON g__dynstat_g_eta_sd          =   0.0000000000000E+00
(PID.TID 0000.0001) %MON g__dynstat_g_eta_del2        =   0.0000000000000E+00
(PID.TID 0000.0001) %MON g__dynstat_g_uvel_max        =   0.0000000000000E+00
(PID.TID 0000.0001) %MON g__dynstat_g_uvel_min        =   0.0000000000000E+00
(PID.TID 0000.0001) %MON g__dynstat_g_uvel_mean       =   0.0000000000000E+00
(PID.TID 0000.0001) %MON g__dynstat_g_uvel_sd         =   0.0000000000000E+00
(PID.TID 0000.0001) %MON g__dynstat_g_uvel_del2       =   0.0000000000000E+00
(PID.TID 0000.0001) %MON g__dynstat_g_vvel_max        =   0.0000000000000E+00
(PID.TID 0000.0001) %MON g__dynstat_g_vvel_min        =   0.0000000000000E+00
(PID.TID 0000.0001) %MON g__dynstat_g_vvel_mean       =   0.0000000000000E+00
(PID.TID 0000.0001) %MON g__dynstat_g_vvel_sd         =   0.0000000000000E+00
(PID.TID 0000.0001) %MON g__dynstat_g_vvel_del2       =   0.0000000000000E+00
(PID.TID 0000.0001) %MON g__dynstat_g_wvel_max        =   0.0000000000000E+00
(PID.TID 0000.0001) %MON g__dynstat_g_wvel_min        =   0.0000000000000E+00
(PID.TID 0000.0001) %MON g__dynstat_g_wvel_mean       =   0.0000000000000E+00
(PID.TID 0000.0001) %MON g__dynstat_g_wvel_sd         =   0.0000000000000E+00
(PID.TID 0000.0001) %MON g__dynstat_g_wvel_del2       =   0.0000000000000E+00
(PID.TID 0000.0001) %MON g__dynstat_g_theta_max       =   1.0000000000000E+00
(PID.TID 0000.0001) %MON g__dynstat_g_theta_min       =   0.0000000000000E+00
(PID.TID 0000.0001) %MON g__dynstat_g_theta_mean      =   1.9483302809492E-02
(PID.TID 0000.0001) %MON g__dynstat_g_theta_sd        =   1.3821614855409E-01
(PID.TID 0000.0001) %MON g__dynstat_g_theta_del2      =   0.0000000000000E+00
(PID.TID 0000.0001) %MON g__dynstat_g_salt_max        =   0.0000000000000E+00
(PID.TID 0000.0001) %MON g__dynstat_g_salt_min        =   0.0000000000000E+00
(PID.TID 0000.0001) %MON g__dynstat_g_salt_mean       =   0.0000000000000E+00
(PID.TID 0000.0001) %MON g__dynstat_g_salt_sd         =   0.0000000000000E+00
(PID.TID 0000.0001) %MON g__dynstat_g_salt_del2       =   0.0000000000000E+00
(PID.TID 0000.0001) %MON g__dynstat_g_sst_max         =   1.0000000000000E+00
(PID.TID 0000.0001) %MON g__dynstat_g_sst_min         =   1.0000000000000E+00
(PID.TID 0000.0001) %MON g__dynstat_g_sst_mean        =   1.0000000000000E+00
(PID.TID 0000.0001) %MON g__dynstat_g_sst_sd          =   0.0000000000000E+00
(PID.TID 0000.0001) %MON g__dynstat_g_sst_del2        =   0.0000000000000E+00
(PID.TID 0000.0001) %MON g__dynstat_g_sss_max         =   0.0000000000000E+00
(PID.TID 0000.0001) %MON g__dynstat_g_sss_min         =   0.0000000000000E+00
(PID.TID 0000.0001) %MON g__dynstat_g_sss_mean        =   0.0000000000000E+00
(PID.TID 0000.0001) %MON g__dynstat_g_sss_sd          =   0.0000000000000E+00
(PID.TID 0000.0001) %MON g__dynstat_g_sss_del2        =   0.0000000000000E+00
(PID.TID 0000.0001) %MON g__forcing_g_qnet_max        =   0.0000000000000E+00
(PID.TID 0000.0001) %MON g__forcing_g_qnet_min        =   0.0000000000000E+00
(PID.TID 0000.0001) %MON g__forcing_g_qnet_mean       =   0.0000000000000E+00
(PID.TID 0000.0001) %MON g__forcing_g_qnet_sd         =   0.0000000000000E+00
(PID.TID 0000.0001) %MON g__forcing_g_qnet_del2       =   0.0000000000000E+00
(PID.TID 0000.0001) %MON g__forcing_g_qsw_max         =   0.0000000000000E+00
(PID.TID 0000.0001) %MON g__forcing_g_qsw_min         =   0.0000000000000E+00
(PID.TID 0000.0001) %MON g__forcing_g_qsw_mean        =   0.0000000000000E+00
(PID.TID 0000.0001) %MON g__forcing_g_qsw_sd          =   0.0000000000000E+00
(PID.TID 0000.0001) %MON g__forcing_g_qsw_del2        =   0.0000000000000E+00
(PID.TID 0000.0001) %MON g__forcing_g_empmr_max       =   0.0000000000000E+00
(PID.TID 0000.0001) %MON g__forcing_g_empmr_min       =   0.0000000000000E+00
(PID.TID 0000.0001) %MON g__forcing_g_empmr_mean      =   0.0000000000000E+00
(PID.TID 0000.0001) %MON g__forcing_g_empmr_sd        =   0.0000000000000E+00
(PID.TID 0000.0001) %MON g__forcing_g_empmr_del2      =   0.0000000000000E+00
(PID.TID 0000.0001) %MON g__forcing_g_fu_max          =   0.0000000000000E+00
(PID.TID 0000.0001) %MON g__forcing_g_fu_min          =   0.0000000000000E+00
(PID.TID 0000.0001) %MON g__forcing_g_fu_mean         =   0.0000000000000E+00
(PID.TID 0000.0001) %MON g__forcing_g_fu_sd           =   0.0000000000000E+00
(PID.TID 0000.0001) %MON g__forcing_g_fu_del2         =   0.0000000000000E+00
(PID.TID 0000.0001) %MON g__forcing_g_fv_max          =   0.0000000000000E+00
(PID.TID 0000.0001) %MON g__forcing_g_fv_min          =   0.0000000000000E+00
(PID.TID 0000.0001) %MON g__forcing_g_fv_mean         =   0.0000000000000E+00
(PID.TID 0000.0001) %MON g__forcing_g_fv_sd           =   0.0000000000000E+00
(PID.TID 0000.0001) %MON g__forcing_g_fv_del2         =   0.0000000000000E+00
(PID.TID 0000.0001) %MON g__g_vcfl_g_uvel_max         =   0.0000000000000E+00
(PID.TID 0000.0001) %MON g__g_vcfl_g_vvel_max         =   0.0000000000000E+00
(PID.TID 0000.0001) %MON g__g_vcfl_g_wvel_max         =   0.0000000000000E+00
(PID.TID 0000.0001) %MON g__g_vcfl_g_W_hf_max         =   0.0000000000000E+00
(PID.TID 0000.0001) // =======================================================
(PID.TID 0000.0001) // End MONITOR dynamic field statistics
(PID.TID 0000.0001) // =======================================================
(PID.TID 0000.0001) // =======================================================
(PID.TID 0000.0001) // Begin MONITOR SEAICE statistics
(PID.TID 0000.0001) // =======================================================
(PID.TID 0000.0001) %MON seaice_tsnumber              =                     0
(PID.TID 0000.0001) %MON seaice_time_sec              =   0.0000000000000E+00
(PID.TID 0000.0001) %MON seaice_uice_max              =   0.0000000000000E+00
(PID.TID 0000.0001) %MON seaice_uice_min              =   0.0000000000000E+00
(PID.TID 0000.0001) %MON seaice_uice_mean             =   0.0000000000000E+00
(PID.TID 0000.0001) %MON seaice_uice_sd               =   0.0000000000000E+00
(PID.TID 0000.0001) %MON seaice_uice_del2             =   0.0000000000000E+00
(PID.TID 0000.0001) %MON seaice_vice_max              =   0.0000000000000E+00
(PID.TID 0000.0001) %MON seaice_vice_min              =   0.0000000000000E+00
(PID.TID 0000.0001) %MON seaice_vice_mean             =   0.0000000000000E+00
(PID.TID 0000.0001) %MON seaice_vice_sd               =   0.0000000000000E+00
(PID.TID 0000.0001) %MON seaice_vice_del2             =   0.0000000000000E+00
(PID.TID 0000.0001) %MON seaice_area_max              =   0.0000000000000E+00
(PID.TID 0000.0001) %MON seaice_area_min              =   0.0000000000000E+00
(PID.TID 0000.0001) %MON seaice_area_mean             =   0.0000000000000E+00
(PID.TID 0000.0001) %MON seaice_area_sd               =   0.0000000000000E+00
(PID.TID 0000.0001) %MON seaice_area_del2             =   0.0000000000000E+00
(PID.TID 0000.0001) %MON seaice_heff_max              =   0.0000000000000E+00
(PID.TID 0000.0001) %MON seaice_heff_min              =   0.0000000000000E+00
(PID.TID 0000.0001) %MON seaice_heff_mean             =   0.0000000000000E+00
(PID.TID 0000.0001) %MON seaice_heff_sd               =   0.0000000000000E+00
(PID.TID 0000.0001) %MON seaice_heff_del2             =   0.0000000000000E+00
(PID.TID 0000.0001) %MON seaice_hsnow_max             =   0.0000000000000E+00
(PID.TID 0000.0001) %MON seaice_hsnow_min             =   0.0000000000000E+00
(PID.TID 0000.0001) %MON seaice_hsnow_mean            =   0.0000000000000E+00
(PID.TID 0000.0001) %MON seaice_hsnow_sd              =   0.0000000000000E+00
(PID.TID 0000.0001) %MON seaice_hsnow_del2            =   0.0000000000000E+00
(PID.TID 0000.0001) %MON seaice_hsalt_max             =   0.0000000000000E+00
(PID.TID 0000.0001) %MON seaice_hsalt_min             =   0.0000000000000E+00
(PID.TID 0000.0001) %MON seaice_hsalt_mean            =   0.0000000000000E+00
(PID.TID 0000.0001) %MON seaice_hsalt_sd              =   0.0000000000000E+00
(PID.TID 0000.0001) %MON seaice_hsalt_del2            =   0.0000000000000E+00
(PID.TID 0000.0001) // =======================================================
(PID.TID 0000.0001) // End MONITOR SEAICE statistics
(PID.TID 0000.0001) // =======================================================
 myIter=            0
(PID.TID 0000.0001) // Model state written, timestep         0
(PID.TID 0000.0001) 
 cg2d: Sum(rhs),rhsMax =  -1.00000000000000E+00  1.40669236811548E-04
 cg2d: Sum(rhs),rhsMax =   1.00000000000000E+00  5.58645366562891E-06
(PID.TID 0000.0001) // =======================================================
(PID.TID 0000.0001) // Begin MONITOR dynamic field statistics
(PID.TID 0000.0001) // =======================================================
(PID.TID 0000.0001) %MON g__time_tsnumber             =                     1
(PID.TID 0000.0001) %MON g__time_secondsf             =   3.6000000000000E+03
(PID.TID 0000.0001) %MON g__dynstat_g_eta_max         =   3.7428424264723E-02
(PID.TID 0000.0001) %MON g__dynstat_g_eta_min         =   3.7428424264723E-02
(PID.TID 0000.0001) %MON g__dynstat_g_eta_mean        =   3.7428424264723E-02
(PID.TID 0000.0001) %MON g__dynstat_g_eta_sd          =   0.0000000000000E+00
(PID.TID 0000.0001) %MON g__dynstat_g_eta_del2        =   0.0000000000000E+00
(PID.TID 0000.0001) %MON g__dynstat_g_uvel_max        =   3.3907119739293E-03
(PID.TID 0000.0001) %MON g__dynstat_g_uvel_min        =  -1.7891940231803E-03
(PID.TID 0000.0001) %MON g__dynstat_g_uvel_mean       =   3.1680533129238E-07
(PID.TID 0000.0001) %MON g__dynstat_g_uvel_sd         =   5.6787789421984E-04
(PID.TID 0000.0001) %MON g__dynstat_g_uvel_del2       =   0.0000000000000E+00
(PID.TID 0000.0001) %MON g__dynstat_g_vvel_max        =   3.3907119739293E-03
(PID.TID 0000.0001) %MON g__dynstat_g_vvel_min        =  -1.7891940231803E-03
(PID.TID 0000.0001) %MON g__dynstat_g_vvel_mean       =   3.1680533129238E-07
(PID.TID 0000.0001) %MON g__dynstat_g_vvel_sd         =   5.6787789421984E-04
(PID.TID 0000.0001) %MON g__dynstat_g_vvel_del2       =   0.0000000000000E+00
(PID.TID 0000.0001) %MON g__dynstat_g_wvel_max        =   0.0000000000000E+00
(PID.TID 0000.0001) %MON g__dynstat_g_wvel_min        =   0.0000000000000E+00
(PID.TID 0000.0001) %MON g__dynstat_g_wvel_mean       =   0.0000000000000E+00
(PID.TID 0000.0001) %MON g__dynstat_g_wvel_sd         =   0.0000000000000E+00
(PID.TID 0000.0001) %MON g__dynstat_g_wvel_del2       =   0.0000000000000E+00
(PID.TID 0000.0001) %MON g__dynstat_g_theta_max       =   1.7712800212188E+00
(PID.TID 0000.0001) %MON g__dynstat_g_theta_min       =  -1.0388973925645E+00
(PID.TID 0000.0001) %MON g__dynstat_g_theta_mean      =   1.3346062424502E-02
(PID.TID 0000.0001) %MON g__dynstat_g_theta_sd        =   2.9062236338536E-01
(PID.TID 0000.0001) %MON g__dynstat_g_theta_del2      =   0.0000000000000E+00
(PID.TID 0000.0001) %MON g__dynstat_g_salt_max        =   1.7558577489138E-01
(PID.TID 0000.0001) %MON g__dynstat_g_salt_min        =  -1.3555114868764E-01
(PID.TID 0000.0001) %MON g__dynstat_g_salt_mean       =  -1.4806394824779E-03
(PID.TID 0000.0001) %MON g__dynstat_g_salt_sd         =   3.3042090834337E-02
(PID.TID 0000.0001) %MON g__dynstat_g_salt_del2       =   0.0000000000000E+00
(PID.TID 0000.0001) %MON g__dynstat_g_sst_max         =   2.2764246271116E-01
(PID.TID 0000.0001) %MON g__dynstat_g_sst_min         =   2.2764246271116E-01
(PID.TID 0000.0001) %MON g__dynstat_g_sst_mean        =   2.2764246271116E-01
(PID.TID 0000.0001) %MON g__dynstat_g_sst_sd          =   0.0000000000000E+00
(PID.TID 0000.0001) %MON g__dynstat_g_sst_del2        =   0.0000000000000E+00
(PID.TID 0000.0001) %MON g__dynstat_g_sss_max         =  -4.7691848554734E-02
(PID.TID 0000.0001) %MON g__dynstat_g_sss_min         =  -4.7691848554734E-02
(PID.TID 0000.0001) %MON g__dynstat_g_sss_mean        =  -4.7691848554734E-02
(PID.TID 0000.0001) %MON g__dynstat_g_sss_sd          =   0.0000000000000E+00
(PID.TID 0000.0001) %MON g__dynstat_g_sss_del2        =   0.0000000000000E+00
(PID.TID 0000.0001) %MON g__forcing_g_qnet_max        =   3.5819192500000E+03
(PID.TID 0000.0001) %MON g__forcing_g_qnet_min        =   3.5819192500000E+03
(PID.TID 0000.0001) %MON g__forcing_g_qnet_mean       =   3.5819192500000E+03
(PID.TID 0000.0001) %MON g__forcing_g_qnet_sd         =   0.0000000000000E+00
(PID.TID 0000.0001) %MON g__forcing_g_qnet_del2       =   0.0000000000000E+00
(PID.TID 0000.0001) %MON g__forcing_g_qsw_max         =   0.0000000000000E+00
(PID.TID 0000.0001) %MON g__forcing_g_qsw_min         =   0.0000000000000E+00
(PID.TID 0000.0001) %MON g__forcing_g_qsw_mean        =   0.0000000000000E+00
(PID.TID 0000.0001) %MON g__forcing_g_qsw_sd          =   0.0000000000000E+00
(PID.TID 0000.0001) %MON g__forcing_g_qsw_del2        =   0.0000000000000E+00
(PID.TID 0000.0001) %MON g__forcing_g_empmr_max       =  -1.0677497699954E-02
(PID.TID 0000.0001) %MON g__forcing_g_empmr_min       =  -1.0677497699954E-02
(PID.TID 0000.0001) %MON g__forcing_g_empmr_mean      =  -1.0677497699954E-02
(PID.TID 0000.0001) %MON g__forcing_g_empmr_sd        =   0.0000000000000E+00
(PID.TID 0000.0001) %MON g__forcing_g_empmr_del2      =   0.0000000000000E+00
(PID.TID 0000.0001) %MON g__forcing_g_fu_max          =   4.6387166376747E-05
(PID.TID 0000.0001) %MON g__forcing_g_fu_min          =   4.6387166376747E-05
(PID.TID 0000.0001) %MON g__forcing_g_fu_mean         =   4.6387166376747E-05
(PID.TID 0000.0001) %MON g__forcing_g_fu_sd           =   0.0000000000000E+00
(PID.TID 0000.0001) %MON g__forcing_g_fu_del2         =   0.0000000000000E+00
(PID.TID 0000.0001) %MON g__forcing_g_fv_max          =   4.6387166376747E-05
(PID.TID 0000.0001) %MON g__forcing_g_fv_min          =   4.6387166376747E-05
(PID.TID 0000.0001) %MON g__forcing_g_fv_mean         =   4.6387166376747E-05
(PID.TID 0000.0001) %MON g__forcing_g_fv_sd           =   0.0000000000000E+00
(PID.TID 0000.0001) %MON g__forcing_g_fv_del2         =   0.0000000000000E+00
(PID.TID 0000.0001) %MON g__g_vcfl_g_uvel_max         =   2.4413126212291E-03
(PID.TID 0000.0001) %MON g__g_vcfl_g_vvel_max         =   2.4413126212291E-03
(PID.TID 0000.0001) %MON g__g_vcfl_g_wvel_max         =   0.0000000000000E+00
(PID.TID 0000.0001) %MON g__g_vcfl_g_W_hf_max         =   0.0000000000000E+00
(PID.TID 0000.0001) // =======================================================
(PID.TID 0000.0001) // End MONITOR dynamic field statistics
(PID.TID 0000.0001) // =======================================================
(PID.TID 0000.0001) // =======================================================
(PID.TID 0000.0001) // Begin MONITOR SEAICE statistics
(PID.TID 0000.0001) // =======================================================
(PID.TID 0000.0001) %MON seaice_tsnumber              =                     1
(PID.TID 0000.0001) %MON seaice_time_sec              =   3.6000000000000E+03
(PID.TID 0000.0001) %MON seaice_uice_max              =   0.0000000000000E+00
(PID.TID 0000.0001) %MON seaice_uice_min              =   0.0000000000000E+00
(PID.TID 0000.0001) %MON seaice_uice_mean             =   0.0000000000000E+00
(PID.TID 0000.0001) %MON seaice_uice_sd               =   0.0000000000000E+00
(PID.TID 0000.0001) %MON seaice_uice_del2             =   0.0000000000000E+00
(PID.TID 0000.0001) %MON seaice_vice_max              =   0.0000000000000E+00
(PID.TID 0000.0001) %MON seaice_vice_min              =   0.0000000000000E+00
(PID.TID 0000.0001) %MON seaice_vice_mean             =   0.0000000000000E+00
(PID.TID 0000.0001) %MON seaice_vice_sd               =   0.0000000000000E+00
(PID.TID 0000.0001) %MON seaice_vice_del2             =   0.0000000000000E+00
(PID.TID 0000.0001) %MON seaice_area_max              =   3.1916247108025E-03
(PID.TID 0000.0001) %MON seaice_area_min              =   3.1916247108025E-03
(PID.TID 0000.0001) %MON seaice_area_mean             =   3.1916247108025E-03
(PID.TID 0000.0001) %MON seaice_area_sd               =   0.0000000000000E+00
(PID.TID 0000.0001) %MON seaice_area_del2             =   0.0000000000000E+00
(PID.TID 0000.0001) %MON seaice_heff_max              =   1.5958123554013E-03
(PID.TID 0000.0001) %MON seaice_heff_min              =   1.5958123554013E-03
(PID.TID 0000.0001) %MON seaice_heff_mean             =   1.5958123554013E-03
(PID.TID 0000.0001) %MON seaice_heff_sd               =   0.0000000000000E+00
(PID.TID 0000.0001) %MON seaice_heff_del2             =   0.0000000000000E+00
(PID.TID 0000.0001) %MON seaice_hsnow_max             =   0.0000000000000E+00
(PID.TID 0000.0001) %MON seaice_hsnow_min             =   0.0000000000000E+00
(PID.TID 0000.0001) %MON seaice_hsnow_mean            =   0.0000000000000E+00
(PID.TID 0000.0001) %MON seaice_hsnow_sd              =   0.0000000000000E+00
(PID.TID 0000.0001) %MON seaice_hsnow_del2            =   0.0000000000000E+00
(PID.TID 0000.0001) %MON seaice_hsalt_max             =   1.2637488106219E+01
(PID.TID 0000.0001) %MON seaice_hsalt_min             =   1.2637488106219E+01
(PID.TID 0000.0001) %MON seaice_hsalt_mean            =   1.2637488106219E+01
(PID.TID 0000.0001) %MON seaice_hsalt_sd              =   0.0000000000000E+00
(PID.TID 0000.0001) %MON seaice_hsalt_del2            =   0.0000000000000E+00
(PID.TID 0000.0001) // =======================================================
(PID.TID 0000.0001) // End MONITOR SEAICE statistics
(PID.TID 0000.0001) // =======================================================
 myIter=            1
(PID.TID 0000.0001) // Model state written, timestep         1
(PID.TID 0000.0001) 
 cg2d: Sum(rhs),rhsMax =  -1.00000000000000E+00  1.72562224835896E-04
 cg2d: Sum(rhs),rhsMax =   1.00000000000000E+00  1.08504365899875E-05
(PID.TID 0000.0001) // =======================================================
(PID.TID 0000.0001) // Begin MONITOR dynamic field statistics
(PID.TID 0000.0001) // =======================================================
(PID.TID 0000.0001) %MON g__time_tsnumber             =                     2
(PID.TID 0000.0001) %MON g__time_secondsf             =   7.2000000000000E+03
(PID.TID 0000.0001) %MON g__dynstat_g_eta_max         =   4.5914318649988E-02
(PID.TID 0000.0001) %MON g__dynstat_g_eta_min         =   4.5914318649988E-02
(PID.TID 0000.0001) %MON g__dynstat_g_eta_mean        =   4.5914318649988E-02
(PID.TID 0000.0001) %MON g__dynstat_g_eta_sd          =   0.0000000000000E+00
(PID.TID 0000.0001) %MON g__dynstat_g_eta_del2        =   0.0000000000000E+00
(PID.TID 0000.0001) %MON g__dynstat_g_uvel_max        =   5.4362482677958E-03
(PID.TID 0000.0001) %MON g__dynstat_g_uvel_min        =  -3.4962234374256E-03
(PID.TID 0000.0001) %MON g__dynstat_g_uvel_mean       =   5.9197055111127E-06
(PID.TID 0000.0001) %MON g__dynstat_g_uvel_sd         =   9.1673585157942E-04
(PID.TID 0000.0001) %MON g__dynstat_g_uvel_del2       =   0.0000000000000E+00
(PID.TID 0000.0001) %MON g__dynstat_g_vvel_max        =   2.4339494854655E-03
(PID.TID 0000.0001) %MON g__dynstat_g_vvel_min        =  -1.3999567193430E-03
(PID.TID 0000.0001) %MON g__dynstat_g_vvel_mean       =   5.5547457694638E-06
(PID.TID 0000.0001) %MON g__dynstat_g_vvel_sd         =   3.9884778245603E-04
(PID.TID 0000.0001) %MON g__dynstat_g_vvel_del2       =   0.0000000000000E+00
(PID.TID 0000.0001) %MON g__dynstat_g_wvel_max        =   0.0000000000000E+00
(PID.TID 0000.0001) %MON g__dynstat_g_wvel_min        =   0.0000000000000E+00
(PID.TID 0000.0001) %MON g__dynstat_g_wvel_mean       =   0.0000000000000E+00
(PID.TID 0000.0001) %MON g__dynstat_g_wvel_sd         =   0.0000000000000E+00
(PID.TID 0000.0001) %MON g__dynstat_g_wvel_del2       =   0.0000000000000E+00
(PID.TID 0000.0001) %MON g__dynstat_g_theta_max       =   2.5324313774937E+00
(PID.TID 0000.0001) %MON g__dynstat_g_theta_min       =  -1.1548213814420E+00
(PID.TID 0000.0001) %MON g__dynstat_g_theta_mean      =   1.1938053455245E-02
(PID.TID 0000.0001) %MON g__dynstat_g_theta_sd        =   3.9675007755383E-01
(PID.TID 0000.0001) %MON g__dynstat_g_theta_del2      =   0.0000000000000E+00
(PID.TID 0000.0001) %MON g__dynstat_g_salt_max        =   2.4756759452333E-01
(PID.TID 0000.0001) %MON g__dynstat_g_salt_min        =  -1.5637498586985E-01
(PID.TID 0000.0001) %MON g__dynstat_g_salt_mean       =  -1.8163390382002E-03
(PID.TID 0000.0001) %MON g__dynstat_g_salt_sd         =   4.4747460048127E-02
(PID.TID 0000.0001) %MON g__dynstat_g_salt_del2       =   0.0000000000000E+00
(PID.TID 0000.0001) %MON g__dynstat_g_sst_max         =  -2.2881386097430E-01
(PID.TID 0000.0001) %MON g__dynstat_g_sst_min         =  -2.2881386097430E-01
(PID.TID 0000.0001) %MON g__dynstat_g_sst_mean        =  -2.2881386097430E-01
(PID.TID 0000.0001) %MON g__dynstat_g_sst_sd          =   0.0000000000000E+00
(PID.TID 0000.0001) %MON g__dynstat_g_sst_del2        =   0.0000000000000E+00
(PID.TID 0000.0001) %MON g__dynstat_g_sss_max         =  -8.2388718865467E-02
(PID.TID 0000.0001) %MON g__dynstat_g_sss_min         =  -8.2388718865467E-02
(PID.TID 0000.0001) %MON g__dynstat_g_sss_mean        =  -8.2388718865467E-02
(PID.TID 0000.0001) %MON g__dynstat_g_sss_sd          =   0.0000000000000E+00
(PID.TID 0000.0001) %MON g__dynstat_g_sss_del2        =   0.0000000000000E+00
(PID.TID 0000.0001) %MON g__forcing_g_qnet_max        =   8.2176582874121E+02
(PID.TID 0000.0001) %MON g__forcing_g_qnet_min        =   8.2176582874121E+02
(PID.TID 0000.0001) %MON g__forcing_g_qnet_mean       =   8.2176582874121E+02
(PID.TID 0000.0001) %MON g__forcing_g_qnet_sd         =   0.0000000000000E+00
(PID.TID 0000.0001) %MON g__forcing_g_qnet_del2       =   0.0000000000000E+00
(PID.TID 0000.0001) %MON g__forcing_g_qsw_max         =  -1.4839366842198E+00
(PID.TID 0000.0001) %MON g__forcing_g_qsw_min         =  -1.4839366842198E+00
(PID.TID 0000.0001) %MON g__forcing_g_qsw_mean        =  -1.4839366842198E+00
(PID.TID 0000.0001) %MON g__forcing_g_qsw_sd          =   0.0000000000000E+00
(PID.TID 0000.0001) %MON g__forcing_g_qsw_del2        =   0.0000000000000E+00
(PID.TID 0000.0001) %MON g__forcing_g_empmr_max       =  -2.4208370926862E-03
(PID.TID 0000.0001) %MON g__forcing_g_empmr_min       =  -2.4208370926862E-03
(PID.TID 0000.0001) %MON g__forcing_g_empmr_mean      =  -2.4208370926862E-03
(PID.TID 0000.0001) %MON g__forcing_g_empmr_sd        =   0.0000000000000E+00
(PID.TID 0000.0001) %MON g__forcing_g_empmr_del2      =   0.0000000000000E+00
(PID.TID 0000.0001) %MON g__forcing_g_fu_max          =   5.1343706601032E-04
(PID.TID 0000.0001) %MON g__forcing_g_fu_min          =   5.1343706601032E-04
(PID.TID 0000.0001) %MON g__forcing_g_fu_mean         =   5.1343706601032E-04
(PID.TID 0000.0001) %MON g__forcing_g_fu_sd           =   0.0000000000000E+00
(PID.TID 0000.0001) %MON g__forcing_g_fu_del2         =   0.0000000000000E+00
(PID.TID 0000.0001) %MON g__forcing_g_fv_max          =   5.1343706601032E-04
(PID.TID 0000.0001) %MON g__forcing_g_fv_min          =   5.1343706601032E-04
(PID.TID 0000.0001) %MON g__forcing_g_fv_mean         =   5.1343706601032E-04
(PID.TID 0000.0001) %MON g__forcing_g_fv_sd           =   0.0000000000000E+00
(PID.TID 0000.0001) %MON g__forcing_g_fv_del2         =   0.0000000000000E+00
(PID.TID 0000.0001) %MON g__g_vcfl_g_uvel_max         =   3.9140987528129E-03
(PID.TID 0000.0001) %MON g__g_vcfl_g_vvel_max         =   1.7524436295351E-03
(PID.TID 0000.0001) %MON g__g_vcfl_g_wvel_max         =   0.0000000000000E+00
(PID.TID 0000.0001) %MON g__g_vcfl_g_W_hf_max         =   0.0000000000000E+00
(PID.TID 0000.0001) // =======================================================
(PID.TID 0000.0001) // End MONITOR dynamic field statistics
(PID.TID 0000.0001) // =======================================================
(PID.TID 0000.0001) // =======================================================
(PID.TID 0000.0001) // Begin MONITOR SEAICE statistics
(PID.TID 0000.0001) // =======================================================
(PID.TID 0000.0001) %MON seaice_tsnumber              =                     2
(PID.TID 0000.0001) %MON seaice_time_sec              =   7.2000000000000E+03
(PID.TID 0000.0001) %MON seaice_uice_max              =   0.0000000000000E+00
(PID.TID 0000.0001) %MON seaice_uice_min              =   0.0000000000000E+00
(PID.TID 0000.0001) %MON seaice_uice_mean             =   0.0000000000000E+00
(PID.TID 0000.0001) %MON seaice_uice_sd               =   0.0000000000000E+00
(PID.TID 0000.0001) %MON seaice_uice_del2             =   0.0000000000000E+00
(PID.TID 0000.0001) %MON seaice_vice_max              =   0.0000000000000E+00
(PID.TID 0000.0001) %MON seaice_vice_min              =   0.0000000000000E+00
(PID.TID 0000.0001) %MON seaice_vice_mean             =   0.0000000000000E+00
(PID.TID 0000.0001) %MON seaice_vice_sd               =   0.0000000000000E+00
(PID.TID 0000.0001) %MON seaice_vice_del2             =   0.0000000000000E+00
(PID.TID 0000.0001) %MON seaice_area_max              =   8.8874464471166E-03
(PID.TID 0000.0001) %MON seaice_area_min              =   8.8874464471166E-03
(PID.TID 0000.0001) %MON seaice_area_mean             =   8.8874464471166E-03
(PID.TID 0000.0001) %MON seaice_area_sd               =   0.0000000000000E+00
(PID.TID 0000.0001) %MON seaice_area_del2             =   0.0000000000000E+00
(PID.TID 0000.0001) %MON seaice_heff_max              =   3.0950421993654E-03
(PID.TID 0000.0001) %MON seaice_heff_min              =   3.0950421993654E-03
(PID.TID 0000.0001) %MON seaice_heff_mean             =   3.0950421993654E-03
(PID.TID 0000.0001) %MON seaice_heff_sd               =   0.0000000000000E+00
(PID.TID 0000.0001) %MON seaice_heff_del2             =   0.0000000000000E+00
(PID.TID 0000.0001) %MON seaice_hsnow_max             =   0.0000000000000E+00
(PID.TID 0000.0001) %MON seaice_hsnow_min             =   0.0000000000000E+00
(PID.TID 0000.0001) %MON seaice_hsnow_mean            =   0.0000000000000E+00
(PID.TID 0000.0001) %MON seaice_hsnow_sd              =   0.0000000000000E+00
(PID.TID 0000.0001) %MON seaice_hsnow_del2            =   0.0000000000000E+00
(PID.TID 0000.0001) %MON seaice_hsalt_max             =   2.4510647316748E+01
(PID.TID 0000.0001) %MON seaice_hsalt_min             =   2.4510647316748E+01
(PID.TID 0000.0001) %MON seaice_hsalt_mean            =   2.4510647316748E+01
(PID.TID 0000.0001) %MON seaice_hsalt_sd              =   0.0000000000000E+00
(PID.TID 0000.0001) %MON seaice_hsalt_del2            =   0.0000000000000E+00
(PID.TID 0000.0001) // =======================================================
(PID.TID 0000.0001) // End MONITOR SEAICE statistics
(PID.TID 0000.0001) // =======================================================
 myIter=            2
(PID.TID 0000.0001) // Model state written, timestep         2
(PID.TID 0000.0001) 
 cg2d: Sum(rhs),rhsMax =  -1.00000000000000E+00  1.40651333144648E-04
 cg2d: Sum(rhs),rhsMax =   1.00000000000000E+00  1.54115956505727E-05
(PID.TID 0000.0001) // =======================================================
(PID.TID 0000.0001) // Begin MONITOR dynamic field statistics
(PID.TID 0000.0001) // =======================================================
(PID.TID 0000.0001) %MON g__time_tsnumber             =                     3
(PID.TID 0000.0001) %MON g__time_secondsf             =   1.0800000000000E+04
(PID.TID 0000.0001) %MON g__dynstat_g_eta_max         =   3.7423660564720E-02
(PID.TID 0000.0001) %MON g__dynstat_g_eta_min         =   3.7423660564720E-02
(PID.TID 0000.0001) %MON g__dynstat_g_eta_mean        =   3.7423660564720E-02
(PID.TID 0000.0001) %MON g__dynstat_g_eta_sd          =   0.0000000000000E+00
(PID.TID 0000.0001) %MON g__dynstat_g_eta_del2        =   0.0000000000000E+00
(PID.TID 0000.0001) %MON g__dynstat_g_uvel_max        =   3.1380264068659E-03
(PID.TID 0000.0001) %MON g__dynstat_g_uvel_min        =  -2.1485432559545E-03
(PID.TID 0000.0001) %MON g__dynstat_g_uvel_mean       =   1.2263236306559E-05
(PID.TID 0000.0001) %MON g__dynstat_g_uvel_sd         =   5.8466668964888E-04
(PID.TID 0000.0001) %MON g__dynstat_g_uvel_del2       =   0.0000000000000E+00
(PID.TID 0000.0001) %MON g__dynstat_g_vvel_max        =   2.8567591767850E-04
(PID.TID 0000.0001) %MON g__dynstat_g_vvel_min        =  -3.8913016862097E-04
(PID.TID 0000.0001) %MON g__dynstat_g_vvel_mean       =   5.4258525304168E-06
(PID.TID 0000.0001) %MON g__dynstat_g_vvel_sd         =   7.8581968533465E-05
(PID.TID 0000.0001) %MON g__dynstat_g_vvel_del2       =   0.0000000000000E+00
(PID.TID 0000.0001) %MON g__dynstat_g_wvel_max        =   0.0000000000000E+00
(PID.TID 0000.0001) %MON g__dynstat_g_wvel_min        =   0.0000000000000E+00
(PID.TID 0000.0001) %MON g__dynstat_g_wvel_mean       =   0.0000000000000E+00
(PID.TID 0000.0001) %MON g__dynstat_g_wvel_sd         =   0.0000000000000E+00
(PID.TID 0000.0001) %MON g__dynstat_g_wvel_del2       =   0.0000000000000E+00
(PID.TID 0000.0001) %MON g__dynstat_g_theta_max       =   2.6099543696176E+00
(PID.TID 0000.0001) %MON g__dynstat_g_theta_min       =  -9.0787110032310E-01
(PID.TID 0000.0001) %MON g__dynstat_g_theta_mean      =   1.3313736123601E-02
(PID.TID 0000.0001) %MON g__dynstat_g_theta_sd        =   3.9870290271449E-01
(PID.TID 0000.0001) %MON g__dynstat_g_theta_del2      =   0.0000000000000E+00
(PID.TID 0000.0001) %MON g__dynstat_g_salt_max        =   2.5229931687298E-01
(PID.TID 0000.0001) %MON g__dynstat_g_salt_min        =  -1.3040173889143E-01
(PID.TID 0000.0001) %MON g__dynstat_g_salt_mean       =  -1.4804582424504E-03
(PID.TID 0000.0001) %MON g__dynstat_g_salt_sd         =   4.4180983007395E-02
(PID.TID 0000.0001) %MON g__dynstat_g_salt_del2       =   0.0000000000000E+00
(PID.TID 0000.0001) %MON g__dynstat_g_sst_max         =  -4.2870026330777E-01
(PID.TID 0000.0001) %MON g__dynstat_g_sst_min         =  -4.2870026330777E-01
(PID.TID 0000.0001) %MON g__dynstat_g_sst_mean        =  -4.2870026330777E-01
(PID.TID 0000.0001) %MON g__dynstat_g_sst_sd          =   0.0000000000000E+00
(PID.TID 0000.0001) %MON g__dynstat_g_sst_del2        =   0.0000000000000E+00
(PID.TID 0000.0001) %MON g__dynstat_g_sss_max         =  -9.3487441240418E-02
(PID.TID 0000.0001) %MON g__dynstat_g_sss_min         =  -9.3487441240418E-02
(PID.TID 0000.0001) %MON g__dynstat_g_sss_mean        =  -9.3487441240418E-02
(PID.TID 0000.0001) %MON g__dynstat_g_sss_sd          =   0.0000000000000E+00
(PID.TID 0000.0001) %MON g__dynstat_g_sss_del2        =   0.0000000000000E+00
(PID.TID 0000.0001) %MON g__forcing_g_qnet_max        =  -8.0289901039679E+02
(PID.TID 0000.0001) %MON g__forcing_g_qnet_min        =  -8.0289901039679E+02
(PID.TID 0000.0001) %MON g__forcing_g_qnet_mean       =  -8.0289901039679E+02
(PID.TID 0000.0001) %MON g__forcing_g_qnet_sd         =   0.0000000000000E+00
(PID.TID 0000.0001) %MON g__forcing_g_qnet_del2       =   0.0000000000000E+00
(PID.TID 0000.0001) %MON g__forcing_g_qsw_max         =  -1.5125139438090E+00
(PID.TID 0000.0001) %MON g__forcing_g_qsw_min         =  -1.5125139438090E+00
(PID.TID 0000.0001) %MON g__forcing_g_qsw_mean        =  -1.5125139438090E+00
(PID.TID 0000.0001) %MON g__forcing_g_qsw_sd          =   2.2204460492503E-16
(PID.TID 0000.0001) %MON g__forcing_g_qsw_del2        =   0.0000000000000E+00
(PID.TID 0000.0001) %MON g__forcing_g_empmr_max       =   2.4221960704396E-03
(PID.TID 0000.0001) %MON g__forcing_g_empmr_min       =   2.4221960704396E-03
(PID.TID 0000.0001) %MON g__forcing_g_empmr_mean      =   2.4221960704396E-03
(PID.TID 0000.0001) %MON g__forcing_g_empmr_sd        =   0.0000000000000E+00
(PID.TID 0000.0001) %MON g__forcing_g_empmr_del2      =   0.0000000000000E+00
(PID.TID 0000.0001) %MON g__forcing_g_fu_max          =   4.8651949984346E-04
(PID.TID 0000.0001) %MON g__forcing_g_fu_min          =   4.8651949984346E-04
(PID.TID 0000.0001) %MON g__forcing_g_fu_mean         =   4.8651949984346E-04
(PID.TID 0000.0001) %MON g__forcing_g_fu_sd           =   0.0000000000000E+00
(PID.TID 0000.0001) %MON g__forcing_g_fu_del2         =   0.0000000000000E+00
(PID.TID 0000.0001) %MON g__forcing_g_fv_max          =   4.8651949984346E-04
(PID.TID 0000.0001) %MON g__forcing_g_fv_min          =   4.8651949984346E-04
(PID.TID 0000.0001) %MON g__forcing_g_fv_mean         =   4.8651949984346E-04
(PID.TID 0000.0001) %MON g__forcing_g_fv_sd           =   0.0000000000000E+00
(PID.TID 0000.0001) %MON g__forcing_g_fv_del2         =   0.0000000000000E+00
(PID.TID 0000.0001) %MON g__g_vcfl_g_uvel_max         =   2.2593790129434E-03
(PID.TID 0000.0001) %MON g__g_vcfl_g_vvel_max         =   2.8017372140710E-04
(PID.TID 0000.0001) %MON g__g_vcfl_g_wvel_max         =   0.0000000000000E+00
(PID.TID 0000.0001) %MON g__g_vcfl_g_W_hf_max         =   0.0000000000000E+00
(PID.TID 0000.0001) // =======================================================
(PID.TID 0000.0001) // End MONITOR dynamic field statistics
(PID.TID 0000.0001) // =======================================================
(PID.TID 0000.0001) // =======================================================
(PID.TID 0000.0001) // Begin MONITOR SEAICE statistics
(PID.TID 0000.0001) // =======================================================
(PID.TID 0000.0001) %MON seaice_tsnumber              =                     3
(PID.TID 0000.0001) %MON seaice_time_sec              =   1.0800000000000E+04
(PID.TID 0000.0001) %MON seaice_uice_max              =   0.0000000000000E+00
(PID.TID 0000.0001) %MON seaice_uice_min              =   0.0000000000000E+00
(PID.TID 0000.0001) %MON seaice_uice_mean             =   0.0000000000000E+00
(PID.TID 0000.0001) %MON seaice_uice_sd               =   0.0000000000000E+00
(PID.TID 0000.0001) %MON seaice_uice_del2             =   0.0000000000000E+00
(PID.TID 0000.0001) %MON seaice_vice_max              =   0.0000000000000E+00
(PID.TID 0000.0001) %MON seaice_vice_min              =   0.0000000000000E+00
(PID.TID 0000.0001) %MON seaice_vice_mean             =   0.0000000000000E+00
(PID.TID 0000.0001) %MON seaice_vice_sd               =   0.0000000000000E+00
(PID.TID 0000.0001) %MON seaice_vice_del2             =   0.0000000000000E+00
(PID.TID 0000.0001) %MON seaice_area_max              =   1.4502448062550E-02
(PID.TID 0000.0001) %MON seaice_area_min              =   1.4502448062550E-02
(PID.TID 0000.0001) %MON seaice_area_mean             =   1.4502448062550E-02
(PID.TID 0000.0001) %MON seaice_area_sd               =   0.0000000000000E+00
(PID.TID 0000.0001) %MON seaice_area_del2             =   0.0000000000000E+00
(PID.TID 0000.0001) %MON seaice_heff_max              =   4.3836625488979E-03
(PID.TID 0000.0001) %MON seaice_heff_min              =   4.3836625488979E-03
(PID.TID 0000.0001) %MON seaice_heff_mean             =   4.3836625488979E-03
(PID.TID 0000.0001) %MON seaice_heff_sd               =   8.6736173798840E-19
(PID.TID 0000.0001) %MON seaice_heff_del2             =   0.0000000000000E+00
(PID.TID 0000.0001) %MON seaice_hsnow_max             =   0.0000000000000E+00
(PID.TID 0000.0001) %MON seaice_hsnow_min             =   0.0000000000000E+00
(PID.TID 0000.0001) %MON seaice_hsnow_mean            =   0.0000000000000E+00
(PID.TID 0000.0001) %MON seaice_hsnow_sd              =   0.0000000000000E+00
(PID.TID 0000.0001) %MON seaice_hsnow_del2            =   0.0000000000000E+00
(PID.TID 0000.0001) %MON seaice_hsalt_max             =   3.4716472667745E+01
(PID.TID 0000.0001) %MON seaice_hsalt_min             =   3.4716472667745E+01
(PID.TID 0000.0001) %MON seaice_hsalt_mean            =   3.4716472667745E+01
(PID.TID 0000.0001) %MON seaice_hsalt_sd              =   0.0000000000000E+00
(PID.TID 0000.0001) %MON seaice_hsalt_del2            =   0.0000000000000E+00
(PID.TID 0000.0001) // =======================================================
(PID.TID 0000.0001) // End MONITOR SEAICE statistics
(PID.TID 0000.0001) // =======================================================
 myIter=            3
(PID.TID 0000.0001) // Model state written, timestep         3
(PID.TID 0000.0001) 
 cg2d: Sum(rhs),rhsMax =  -1.00000000000000E+00  8.12153291010317E-05
 cg2d: Sum(rhs),rhsMax =   1.00000000000000E+00  1.91662515894767E-05
(PID.TID 0000.0001) // =======================================================
(PID.TID 0000.0001) // Begin MONITOR dynamic field statistics
(PID.TID 0000.0001) // =======================================================
(PID.TID 0000.0001) %MON g__time_tsnumber             =                     4
(PID.TID 0000.0001) %MON g__time_secondsf             =   1.4400000000000E+04
(PID.TID 0000.0001) %MON g__dynstat_g_eta_max         =   2.1609286175827E-02
(PID.TID 0000.0001) %MON g__dynstat_g_eta_min         =   2.1609286175827E-02
(PID.TID 0000.0001) %MON g__dynstat_g_eta_mean        =   2.1609286175827E-02
(PID.TID 0000.0001) %MON g__dynstat_g_eta_sd          =   0.0000000000000E+00
(PID.TID 0000.0001) %MON g__dynstat_g_eta_del2        =   0.0000000000000E+00
(PID.TID 0000.0001) %MON g__dynstat_g_uvel_max        =   2.0353892506866E-03
(PID.TID 0000.0001) %MON g__dynstat_g_uvel_min        =  -1.9515307304875E-03
(PID.TID 0000.0001) %MON g__dynstat_g_uvel_mean       =   1.7316462610790E-05
(PID.TID 0000.0001) %MON g__dynstat_g_uvel_sd         =   4.5382589188915E-04
(PID.TID 0000.0001) %MON g__dynstat_g_uvel_del2       =   0.0000000000000E+00
(PID.TID 0000.0001) %MON g__dynstat_g_vvel_max        =   1.1974587459860E-03
(PID.TID 0000.0001) %MON g__dynstat_g_vvel_min        =  -2.3192308431004E-03
(PID.TID 0000.0001) %MON g__dynstat_g_vvel_mean       =   2.7686451411533E-06
(PID.TID 0000.0001) %MON g__dynstat_g_vvel_sd         =   3.8503628093551E-04
(PID.TID 0000.0001) %MON g__dynstat_g_vvel_del2       =   0.0000000000000E+00
(PID.TID 0000.0001) %MON g__dynstat_g_wvel_max        =   0.0000000000000E+00
(PID.TID 0000.0001) %MON g__dynstat_g_wvel_min        =   0.0000000000000E+00
(PID.TID 0000.0001) %MON g__dynstat_g_wvel_mean       =   0.0000000000000E+00
(PID.TID 0000.0001) %MON g__dynstat_g_wvel_sd         =   0.0000000000000E+00
(PID.TID 0000.0001) %MON g__dynstat_g_wvel_del2       =   0.0000000000000E+00
(PID.TID 0000.0001) %MON g__dynstat_g_theta_max       =   2.1194125878199E+00
(PID.TID 0000.0001) %MON g__dynstat_g_theta_min       =  -4.4432223407258E-01
(PID.TID 0000.0001) %MON g__dynstat_g_theta_mean      =   1.5890169594936E-02
(PID.TID 0000.0001) %MON g__dynstat_g_theta_sd        =   3.1355245865862E-01
(PID.TID 0000.0001) %MON g__dynstat_g_theta_del2      =   0.0000000000000E+00
(PID.TID 0000.0001) %MON g__dynstat_g_salt_max        =   2.0371446533700E-01
(PID.TID 0000.0001) %MON g__dynstat_g_salt_min        =  -8.4079057690047E-02
(PID.TID 0000.0001) %MON g__dynstat_g_salt_mean       =  -8.5478326456574E-04
(PID.TID 0000.0001) %MON g__dynstat_g_salt_sd         =   3.4729441432248E-02
(PID.TID 0000.0001) %MON g__dynstat_g_salt_del2       =   0.0000000000000E+00
(PID.TID 0000.0001) %MON g__dynstat_g_sst_max         =  -4.1728864499804E-01
(PID.TID 0000.0001) %MON g__dynstat_g_sst_min         =  -4.1728864499804E-01
(PID.TID 0000.0001) %MON g__dynstat_g_sst_mean        =  -4.1728864499804E-01
(PID.TID 0000.0001) %MON g__dynstat_g_sst_sd          =   0.0000000000000E+00
(PID.TID 0000.0001) %MON g__dynstat_g_sst_del2        =   0.0000000000000E+00
(PID.TID 0000.0001) %MON g__dynstat_g_sss_max         =  -8.3556088720933E-02
(PID.TID 0000.0001) %MON g__dynstat_g_sss_min         =  -8.3556088720933E-02
(PID.TID 0000.0001) %MON g__dynstat_g_sss_mean        =  -8.3556088720933E-02
(PID.TID 0000.0001) %MON g__dynstat_g_sss_sd          =   0.0000000000000E+00
(PID.TID 0000.0001) %MON g__dynstat_g_sss_del2        =   0.0000000000000E+00
(PID.TID 0000.0001) %MON g__forcing_g_qnet_max        =  -1.5037013492072E+03
(PID.TID 0000.0001) %MON g__forcing_g_qnet_min        =  -1.5037013492072E+03
(PID.TID 0000.0001) %MON g__forcing_g_qnet_mean       =  -1.5037013492072E+03
(PID.TID 0000.0001) %MON g__forcing_g_qnet_sd         =   0.0000000000000E+00
(PID.TID 0000.0001) %MON g__forcing_g_qnet_del2       =   0.0000000000000E+00
(PID.TID 0000.0001) %MON g__forcing_g_qsw_max         =  -1.4899200023063E+00
(PID.TID 0000.0001) %MON g__forcing_g_qsw_min         =  -1.4899200023063E+00
(PID.TID 0000.0001) %MON g__forcing_g_qsw_mean        =  -1.4899200023063E+00
(PID.TID 0000.0001) %MON g__forcing_g_qsw_sd          =   0.0000000000000E+00
(PID.TID 0000.0001) %MON g__forcing_g_qsw_del2        =   0.0000000000000E+00
(PID.TID 0000.0001) %MON g__forcing_g_empmr_max       =   4.5114895826219E-03
(PID.TID 0000.0001) %MON g__forcing_g_empmr_min       =   4.5114895826219E-03
(PID.TID 0000.0001) %MON g__forcing_g_empmr_mean      =   4.5114895826219E-03
(PID.TID 0000.0001) %MON g__forcing_g_empmr_sd        =   0.0000000000000E+00
(PID.TID 0000.0001) %MON g__forcing_g_empmr_del2      =   0.0000000000000E+00
(PID.TID 0000.0001) %MON g__forcing_g_fu_max          =   4.6867724885108E-04
(PID.TID 0000.0001) %MON g__forcing_g_fu_min          =   4.6867724885108E-04
(PID.TID 0000.0001) %MON g__forcing_g_fu_mean         =   4.6867724885108E-04
(PID.TID 0000.0001) %MON g__forcing_g_fu_sd           =   0.0000000000000E+00
(PID.TID 0000.0001) %MON g__forcing_g_fu_del2         =   0.0000000000000E+00
(PID.TID 0000.0001) %MON g__forcing_g_fv_max          =   4.6867724885108E-04
(PID.TID 0000.0001) %MON g__forcing_g_fv_min          =   4.6867724885108E-04
(PID.TID 0000.0001) %MON g__forcing_g_fv_mean         =   4.6867724885108E-04
(PID.TID 0000.0001) %MON g__forcing_g_fv_sd           =   0.0000000000000E+00
(PID.TID 0000.0001) %MON g__forcing_g_fv_del2         =   0.0000000000000E+00
(PID.TID 0000.0001) %MON g__g_vcfl_g_uvel_max         =   1.4654802604944E-03
(PID.TID 0000.0001) %MON g__g_vcfl_g_vvel_max         =   1.6698462070323E-03
(PID.TID 0000.0001) %MON g__g_vcfl_g_wvel_max         =   0.0000000000000E+00
(PID.TID 0000.0001) %MON g__g_vcfl_g_W_hf_max         =   0.0000000000000E+00
(PID.TID 0000.0001) // =======================================================
(PID.TID 0000.0001) // End MONITOR dynamic field statistics
(PID.TID 0000.0001) // =======================================================
(PID.TID 0000.0001) // =======================================================
(PID.TID 0000.0001) // Begin MONITOR SEAICE statistics
(PID.TID 0000.0001) // =======================================================
(PID.TID 0000.0001) %MON seaice_tsnumber              =                     4
(PID.TID 0000.0001) %MON seaice_time_sec              =   1.4400000000000E+04
(PID.TID 0000.0001) %MON seaice_uice_max              =   0.0000000000000E+00
(PID.TID 0000.0001) %MON seaice_uice_min              =   0.0000000000000E+00
(PID.TID 0000.0001) %MON seaice_uice_mean             =   0.0000000000000E+00
(PID.TID 0000.0001) %MON seaice_uice_sd               =   0.0000000000000E+00
(PID.TID 0000.0001) %MON seaice_uice_del2             =   0.0000000000000E+00
(PID.TID 0000.0001) %MON seaice_vice_max              =   0.0000000000000E+00
(PID.TID 0000.0001) %MON seaice_vice_min              =   0.0000000000000E+00
(PID.TID 0000.0001) %MON seaice_vice_mean             =   0.0000000000000E+00
(PID.TID 0000.0001) %MON seaice_vice_sd               =   0.0000000000000E+00
(PID.TID 0000.0001) %MON seaice_vice_del2             =   0.0000000000000E+00
(PID.TID 0000.0001) %MON seaice_area_max              =   2.0024319664248E-02
(PID.TID 0000.0001) %MON seaice_area_min              =   2.0024319664248E-02
(PID.TID 0000.0001) %MON seaice_area_mean             =   2.0024319664248E-02
(PID.TID 0000.0001) %MON seaice_area_sd               =   0.0000000000000E+00
(PID.TID 0000.0001) %MON seaice_area_del2             =   0.0000000000000E+00
(PID.TID 0000.0001) %MON seaice_heff_max              =   5.4305287532319E-03
(PID.TID 0000.0001) %MON seaice_heff_min              =   5.4305287532319E-03
(PID.TID 0000.0001) %MON seaice_heff_mean             =   5.4305287532319E-03
(PID.TID 0000.0001) %MON seaice_heff_sd               =   0.0000000000000E+00
(PID.TID 0000.0001) %MON seaice_heff_del2             =   0.0000000000000E+00
(PID.TID 0000.0001) %MON seaice_hsnow_max             =   0.0000000000000E+00
(PID.TID 0000.0001) %MON seaice_hsnow_min             =   0.0000000000000E+00
(PID.TID 0000.0001) %MON seaice_hsnow_mean            =   0.0000000000000E+00
(PID.TID 0000.0001) %MON seaice_hsnow_sd              =   0.0000000000000E+00
(PID.TID 0000.0001) %MON seaice_hsnow_del2            =   0.0000000000000E+00
(PID.TID 0000.0001) %MON seaice_hsalt_max             =   4.3008109578217E+01
(PID.TID 0000.0001) %MON seaice_hsalt_min             =   4.3008109578217E+01
(PID.TID 0000.0001) %MON seaice_hsalt_mean            =   4.3008109578217E+01
(PID.TID 0000.0001) %MON seaice_hsalt_sd              =   0.0000000000000E+00
(PID.TID 0000.0001) %MON seaice_hsalt_del2            =   0.0000000000000E+00
(PID.TID 0000.0001) // =======================================================
(PID.TID 0000.0001) // End MONITOR SEAICE statistics
(PID.TID 0000.0001) // =======================================================
 myIter=            4
(PID.TID 0000.0001) // Model state written, timestep         4
(PID.TID 0000.0001) 
 cg2d: Sum(rhs),rhsMax =  -1.00000000000000E+00  2.37133423025523E-05
 cg2d: Sum(rhs),rhsMax =   1.00000000000000E+00  2.21776143798627E-05
(PID.TID 0000.0001) // =======================================================
(PID.TID 0000.0001) // Begin MONITOR dynamic field statistics
(PID.TID 0000.0001) // =======================================================
(PID.TID 0000.0001) %MON g__time_tsnumber             =                     5
(PID.TID 0000.0001) %MON g__time_secondsf             =   1.8000000000000E+04
(PID.TID 0000.0001) %MON g__dynstat_g_eta_max         =   6.3095034604008E-03
(PID.TID 0000.0001) %MON g__dynstat_g_eta_min         =   6.3095034604008E-03
(PID.TID 0000.0001) %MON g__dynstat_g_eta_mean        =   6.3095034604008E-03
(PID.TID 0000.0001) %MON g__dynstat_g_eta_sd          =   0.0000000000000E+00
(PID.TID 0000.0001) %MON g__dynstat_g_eta_del2        =   0.0000000000000E+00
(PID.TID 0000.0001) %MON g__dynstat_g_uvel_max        =   5.0739804667748E-03
(PID.TID 0000.0001) %MON g__dynstat_g_uvel_min        =  -7.1213472786882E-03
(PID.TID 0000.0001) %MON g__dynstat_g_uvel_mean       =   2.0794441528431E-05
(PID.TID 0000.0001) %MON g__dynstat_g_uvel_sd         =   1.2607501793330E-03
(PID.TID 0000.0001) %MON g__dynstat_g_uvel_del2       =   0.0000000000000E+00
(PID.TID 0000.0001) %MON g__dynstat_g_vvel_max        =   1.1424399167009E-03
(PID.TID 0000.0001) %MON g__dynstat_g_vvel_min        =  -2.2163706138745E-03
(PID.TID 0000.0001) %MON g__dynstat_g_vvel_mean       =  -1.5015548175379E-06
(PID.TID 0000.0001) %MON g__dynstat_g_vvel_sd         =   3.6973904080195E-04
(PID.TID 0000.0001) %MON g__dynstat_g_vvel_del2       =   0.0000000000000E+00
(PID.TID 0000.0001) %MON g__dynstat_g_wvel_max        =   0.0000000000000E+00
(PID.TID 0000.0001) %MON g__dynstat_g_wvel_min        =   0.0000000000000E+00
(PID.TID 0000.0001) %MON g__dynstat_g_wvel_mean       =   0.0000000000000E+00
(PID.TID 0000.0001) %MON g__dynstat_g_wvel_sd         =   0.0000000000000E+00
(PID.TID 0000.0001) %MON g__dynstat_g_wvel_del2       =   0.0000000000000E+00
(PID.TID 0000.0001) %MON g__dynstat_g_theta_max       =   1.3864531875011E+00
(PID.TID 0000.0001) %MON g__dynstat_g_theta_min       =  -2.7809212574000E-01
(PID.TID 0000.0001) %MON g__dynstat_g_theta_mean      =   1.8382623576849E-02
(PID.TID 0000.0001) %MON g__dynstat_g_theta_sd        =   1.9858612280435E-01
(PID.TID 0000.0001) %MON g__dynstat_g_theta_del2      =   0.0000000000000E+00
(PID.TID 0000.0001) %MON g__dynstat_g_salt_max        =   1.3410726788618E-01
(PID.TID 0000.0001) %MON g__dynstat_g_salt_min        =  -6.2513882163707E-02
(PID.TID 0000.0001) %MON g__dynstat_g_salt_mean       =  -2.4940100513787E-04
(PID.TID 0000.0001) %MON g__dynstat_g_salt_sd         =   2.2409870671885E-02
(PID.TID 0000.0001) %MON g__dynstat_g_salt_del2       =   0.0000000000000E+00
(PID.TID 0000.0001) %MON g__dynstat_g_sst_max         =  -2.7809212574000E-01
(PID.TID 0000.0001) %MON g__dynstat_g_sst_min         =  -2.7809212574000E-01
(PID.TID 0000.0001) %MON g__dynstat_g_sst_mean        =  -2.7809212574000E-01
(PID.TID 0000.0001) %MON g__dynstat_g_sst_sd          =   0.0000000000000E+00
(PID.TID 0000.0001) %MON g__dynstat_g_sst_del2        =   0.0000000000000E+00
(PID.TID 0000.0001) %MON g__dynstat_g_sss_max         =  -6.2513882163707E-02
(PID.TID 0000.0001) %MON g__dynstat_g_sss_min         =  -6.2513882163707E-02
(PID.TID 0000.0001) %MON g__dynstat_g_sss_mean        =  -6.2513882163707E-02
(PID.TID 0000.0001) %MON g__dynstat_g_sss_sd          =   0.0000000000000E+00
(PID.TID 0000.0001) %MON g__dynstat_g_sss_del2        =   0.0000000000000E+00
(PID.TID 0000.0001) %MON g__forcing_g_qnet_max        =  -1.4546878299552E+03
(PID.TID 0000.0001) %MON g__forcing_g_qnet_min        =  -1.4546878299552E+03
(PID.TID 0000.0001) %MON g__forcing_g_qnet_mean       =  -1.4546878299552E+03
(PID.TID 0000.0001) %MON g__forcing_g_qnet_sd         =   0.0000000000000E+00
(PID.TID 0000.0001) %MON g__forcing_g_qnet_del2       =   0.0000000000000E+00
(PID.TID 0000.0001) %MON g__forcing_g_qsw_max         =  -1.4501912368268E+00
(PID.TID 0000.0001) %MON g__forcing_g_qsw_min         =  -1.4501912368268E+00
(PID.TID 0000.0001) %MON g__forcing_g_qsw_mean        =  -1.4501912368268E+00
(PID.TID 0000.0001) %MON g__forcing_g_qsw_sd          =   0.0000000000000E+00
(PID.TID 0000.0001) %MON g__forcing_g_qsw_del2        =   0.0000000000000E+00
(PID.TID 0000.0001) %MON g__forcing_g_empmr_max       =   4.3646880135410E-03
(PID.TID 0000.0001) %MON g__forcing_g_empmr_min       =   4.3646880135410E-03
(PID.TID 0000.0001) %MON g__forcing_g_empmr_mean      =   4.3646880135410E-03
(PID.TID 0000.0001) %MON g__forcing_g_empmr_sd        =   0.0000000000000E+00
(PID.TID 0000.0001) %MON g__forcing_g_empmr_del2      =   0.0000000000000E+00
(PID.TID 0000.0001) %MON g__forcing_g_fu_max          =   4.5534829860127E-04
(PID.TID 0000.0001) %MON g__forcing_g_fu_min          =   4.5534829860127E-04
(PID.TID 0000.0001) %MON g__forcing_g_fu_mean         =   4.5534829860127E-04
(PID.TID 0000.0001) %MON g__forcing_g_fu_sd           =   0.0000000000000E+00
(PID.TID 0000.0001) %MON g__forcing_g_fu_del2         =   0.0000000000000E+00
(PID.TID 0000.0001) %MON g__forcing_g_fv_max          =   4.5534829860127E-04
(PID.TID 0000.0001) %MON g__forcing_g_fv_min          =   4.5534829860127E-04
(PID.TID 0000.0001) %MON g__forcing_g_fv_mean         =   4.5534829860127E-04
(PID.TID 0000.0001) %MON g__forcing_g_fv_sd           =   0.0000000000000E+00
(PID.TID 0000.0001) %MON g__forcing_g_fv_del2         =   0.0000000000000E+00
(PID.TID 0000.0001) %MON g__g_vcfl_g_uvel_max         =   5.1273700406555E-03
(PID.TID 0000.0001) %MON g__g_vcfl_g_vvel_max         =   1.5957868419896E-03
(PID.TID 0000.0001) %MON g__g_vcfl_g_wvel_max         =   0.0000000000000E+00
(PID.TID 0000.0001) %MON g__g_vcfl_g_W_hf_max         =   0.0000000000000E+00
(PID.TID 0000.0001) // =======================================================
(PID.TID 0000.0001) // End MONITOR dynamic field statistics
(PID.TID 0000.0001) // =======================================================
(PID.TID 0000.0001) // =======================================================
(PID.TID 0000.0001) // Begin MONITOR SEAICE statistics
(PID.TID 0000.0001) // =======================================================
(PID.TID 0000.0001) %MON seaice_tsnumber              =                     5
(PID.TID 0000.0001) %MON seaice_time_sec              =   1.8000000000000E+04
(PID.TID 0000.0001) %MON seaice_uice_max              =   0.0000000000000E+00
(PID.TID 0000.0001) %MON seaice_uice_min              =   0.0000000000000E+00
(PID.TID 0000.0001) %MON seaice_uice_mean             =   0.0000000000000E+00
(PID.TID 0000.0001) %MON seaice_uice_sd               =   0.0000000000000E+00
(PID.TID 0000.0001) %MON seaice_uice_del2             =   0.0000000000000E+00
(PID.TID 0000.0001) %MON seaice_vice_max              =   0.0000000000000E+00
(PID.TID 0000.0001) %MON seaice_vice_min              =   0.0000000000000E+00
(PID.TID 0000.0001) %MON seaice_vice_mean             =   0.0000000000000E+00
(PID.TID 0000.0001) %MON seaice_vice_sd               =   0.0000000000000E+00
(PID.TID 0000.0001) %MON seaice_vice_del2             =   0.0000000000000E+00
(PID.TID 0000.0001) %MON seaice_area_max              =   2.5443230117344E-02
(PID.TID 0000.0001) %MON seaice_area_min              =   2.5443230117344E-02
(PID.TID 0000.0001) %MON seaice_area_mean             =   2.5443230117344E-02
(PID.TID 0000.0001) %MON seaice_area_sd               =   0.0000000000000E+00
(PID.TID 0000.0001) %MON seaice_area_del2             =   0.0000000000000E+00
(PID.TID 0000.0001) %MON seaice_heff_max              =   6.2546170708525E-03
(PID.TID 0000.0001) %MON seaice_heff_min              =   6.2546170708525E-03
(PID.TID 0000.0001) %MON seaice_heff_mean             =   6.2546170708525E-03
(PID.TID 0000.0001) %MON seaice_heff_sd               =   0.0000000000000E+00
(PID.TID 0000.0001) %MON seaice_heff_del2             =   0.0000000000000E+00
(PID.TID 0000.0001) %MON seaice_hsnow_max             =   0.0000000000000E+00
(PID.TID 0000.0001) %MON seaice_hsnow_min             =   0.0000000000000E+00
(PID.TID 0000.0001) %MON seaice_hsnow_mean            =   0.0000000000000E+00
(PID.TID 0000.0001) %MON seaice_hsnow_sd              =   0.0000000000000E+00
(PID.TID 0000.0001) %MON seaice_hsnow_del2            =   0.0000000000000E+00
(PID.TID 0000.0001) %MON seaice_hsalt_max             =   4.9535612796250E+01
(PID.TID 0000.0001) %MON seaice_hsalt_min             =   4.9535612796250E+01
(PID.TID 0000.0001) %MON seaice_hsalt_mean            =   4.9535612796250E+01
(PID.TID 0000.0001) %MON seaice_hsalt_sd              =   0.0000000000000E+00
(PID.TID 0000.0001) %MON seaice_hsalt_del2            =   0.0000000000000E+00
(PID.TID 0000.0001) // =======================================================
(PID.TID 0000.0001) // End MONITOR SEAICE statistics
(PID.TID 0000.0001) // =======================================================
 myIter=            5
(PID.TID 0000.0001) // Model state written, timestep         5
(PID.TID 0000.0001) 
 cg2d: Sum(rhs),rhsMax =   1.00000000000000E+00  1.43274592692271E-05
 cg2d: Sum(rhs),rhsMax =   1.00000000000000E+00  2.45952871586638E-05
(PID.TID 0000.0001) // =======================================================
(PID.TID 0000.0001) // Begin MONITOR dynamic field statistics
(PID.TID 0000.0001) // =======================================================
(PID.TID 0000.0001) %MON g__time_tsnumber             =                     6
(PID.TID 0000.0001) %MON g__time_secondsf             =   2.1600000000000E+04
(PID.TID 0000.0001) %MON g__dynstat_g_eta_max         =  -3.8121641683759E-03
(PID.TID 0000.0001) %MON g__dynstat_g_eta_min         =  -3.8121641683759E-03
(PID.TID 0000.0001) %MON g__dynstat_g_eta_mean        =  -3.8121641683759E-03
(PID.TID 0000.0001) %MON g__dynstat_g_eta_sd          =   0.0000000000000E+00
(PID.TID 0000.0001) %MON g__dynstat_g_eta_del2        =   0.0000000000000E+00
(PID.TID 0000.0001) %MON g__dynstat_g_uvel_max        =   6.6629634886745E-03
(PID.TID 0000.0001) %MON g__dynstat_g_uvel_min        =  -9.1460698106754E-03
(PID.TID 0000.0001) %MON g__dynstat_g_uvel_mean       =   2.2326988869554E-05
(PID.TID 0000.0001) %MON g__dynstat_g_uvel_sd         =   1.6205569386004E-03
(PID.TID 0000.0001) %MON g__dynstat_g_uvel_del2       =   0.0000000000000E+00
(PID.TID 0000.0001) %MON g__dynstat_g_vvel_max        =   1.5882231644133E-03
(PID.TID 0000.0001) %MON g__dynstat_g_vvel_min        =  -1.4154563923278E-03
(PID.TID 0000.0001) %MON g__dynstat_g_vvel_mean       =  -6.7433269474694E-06
(PID.TID 0000.0001) %MON g__dynstat_g_vvel_sd         =   3.0416231012197E-04
(PID.TID 0000.0001) %MON g__dynstat_g_vvel_del2       =   0.0000000000000E+00
(PID.TID 0000.0001) %MON g__dynstat_g_wvel_max        =   0.0000000000000E+00
(PID.TID 0000.0001) %MON g__dynstat_g_wvel_min        =   0.0000000000000E+00
(PID.TID 0000.0001) %MON g__dynstat_g_wvel_mean       =   0.0000000000000E+00
(PID.TID 0000.0001) %MON g__dynstat_g_wvel_sd         =   0.0000000000000E+00
(PID.TID 0000.0001) %MON g__dynstat_g_wvel_del2       =   0.0000000000000E+00
(PID.TID 0000.0001) %MON g__dynstat_g_theta_max       =   9.5491303422926E-01
(PID.TID 0000.0001) %MON g__dynstat_g_theta_min       =  -1.3245611782414E-01
(PID.TID 0000.0001) %MON g__dynstat_g_theta_mean      =   2.0026892268143E-02
(PID.TID 0000.0001) %MON g__dynstat_g_theta_sd        =   1.3705709867453E-01
(PID.TID 0000.0001) %MON g__dynstat_g_theta_del2      =   0.0000000000000E+00
(PID.TID 0000.0001) %MON g__dynstat_g_salt_max        =   9.3327262123689E-02
(PID.TID 0000.0001) %MON g__dynstat_g_salt_min        =  -4.3735148790304E-02
(PID.TID 0000.0001) %MON g__dynstat_g_salt_mean       =   1.5114813057134E-04
(PID.TID 0000.0001) %MON g__dynstat_g_salt_sd         =   1.5192933787782E-02
(PID.TID 0000.0001) %MON g__dynstat_g_salt_del2       =   0.0000000000000E+00
(PID.TID 0000.0001) %MON g__dynstat_g_sst_max         =  -1.3245611782414E-01
(PID.TID 0000.0001) %MON g__dynstat_g_sst_min         =  -1.3245611782414E-01
(PID.TID 0000.0001) %MON g__dynstat_g_sst_mean        =  -1.3245611782414E-01
(PID.TID 0000.0001) %MON g__dynstat_g_sst_sd          =   0.0000000000000E+00
(PID.TID 0000.0001) %MON g__dynstat_g_sst_del2        =   0.0000000000000E+00
(PID.TID 0000.0001) %MON g__dynstat_g_sss_max         =  -4.3735148790304E-02
(PID.TID 0000.0001) %MON g__dynstat_g_sss_min         =  -4.3735148790304E-02
(PID.TID 0000.0001) %MON g__dynstat_g_sss_mean        =  -4.3735148790304E-02
(PID.TID 0000.0001) %MON g__dynstat_g_sss_sd          =   0.0000000000000E+00
(PID.TID 0000.0001) %MON g__dynstat_g_sss_del2        =   0.0000000000000E+00
(PID.TID 0000.0001) %MON g__forcing_g_qnet_max        =  -9.5965569344876E+02
(PID.TID 0000.0001) %MON g__forcing_g_qnet_min        =  -9.5965569344876E+02
(PID.TID 0000.0001) %MON g__forcing_g_qnet_mean       =  -9.5965569344876E+02
(PID.TID 0000.0001) %MON g__forcing_g_qnet_sd         =   0.0000000000000E+00
(PID.TID 0000.0001) %MON g__forcing_g_qnet_del2       =   0.0000000000000E+00
(PID.TID 0000.0001) %MON g__forcing_g_qsw_max         =  -1.4001348564962E+00
(PID.TID 0000.0001) %MON g__forcing_g_qsw_min         =  -1.4001348564962E+00
(PID.TID 0000.0001) %MON g__forcing_g_qsw_mean        =  -1.4001348564962E+00
(PID.TID 0000.0001) %MON g__forcing_g_qsw_sd          =   0.0000000000000E+00
(PID.TID 0000.0001) %MON g__forcing_g_qsw_del2        =   0.0000000000000E+00
(PID.TID 0000.0001) %MON g__forcing_g_empmr_max       =   2.8874868485384E-03
(PID.TID 0000.0001) %MON g__forcing_g_empmr_min       =   2.8874868485384E-03
(PID.TID 0000.0001) %MON g__forcing_g_empmr_mean      =   2.8874868485384E-03
(PID.TID 0000.0001) %MON g__forcing_g_empmr_sd        =   0.0000000000000E+00
(PID.TID 0000.0001) %MON g__forcing_g_empmr_del2      =   0.0000000000000E+00
(PID.TID 0000.0001) %MON g__forcing_g_fu_max          =   4.4488171542230E-04
(PID.TID 0000.0001) %MON g__forcing_g_fu_min          =   4.4488171542230E-04
(PID.TID 0000.0001) %MON g__forcing_g_fu_mean         =   4.4488171542230E-04
(PID.TID 0000.0001) %MON g__forcing_g_fu_sd           =   0.0000000000000E+00
(PID.TID 0000.0001) %MON g__forcing_g_fu_del2         =   0.0000000000000E+00
(PID.TID 0000.0001) %MON g__forcing_g_fv_max          =   4.4488171542230E-04
(PID.TID 0000.0001) %MON g__forcing_g_fv_min          =   4.4488171542230E-04
(PID.TID 0000.0001) %MON g__forcing_g_fv_mean         =   4.4488171542230E-04
(PID.TID 0000.0001) %MON g__forcing_g_fv_sd           =   0.0000000000000E+00
(PID.TID 0000.0001) %MON g__forcing_g_fv_del2         =   0.0000000000000E+00
(PID.TID 0000.0001) %MON g__g_vcfl_g_uvel_max         =   6.5851702636863E-03
(PID.TID 0000.0001) %MON g__g_vcfl_g_vvel_max         =   1.1435206783776E-03
(PID.TID 0000.0001) %MON g__g_vcfl_g_wvel_max         =   0.0000000000000E+00
(PID.TID 0000.0001) %MON g__g_vcfl_g_W_hf_max         =   0.0000000000000E+00
(PID.TID 0000.0001) // =======================================================
(PID.TID 0000.0001) // End MONITOR dynamic field statistics
(PID.TID 0000.0001) // =======================================================
(PID.TID 0000.0001) // =======================================================
(PID.TID 0000.0001) // Begin MONITOR SEAICE statistics
(PID.TID 0000.0001) // =======================================================
(PID.TID 0000.0001) %MON seaice_tsnumber              =                     6
(PID.TID 0000.0001) %MON seaice_time_sec              =   2.1600000000000E+04
(PID.TID 0000.0001) %MON seaice_uice_max              =   0.0000000000000E+00
(PID.TID 0000.0001) %MON seaice_uice_min              =   0.0000000000000E+00
(PID.TID 0000.0001) %MON seaice_uice_mean             =   0.0000000000000E+00
(PID.TID 0000.0001) %MON seaice_uice_sd               =   0.0000000000000E+00
(PID.TID 0000.0001) %MON seaice_uice_del2             =   0.0000000000000E+00
(PID.TID 0000.0001) %MON seaice_vice_max              =   0.0000000000000E+00
(PID.TID 0000.0001) %MON seaice_vice_min              =   0.0000000000000E+00
(PID.TID 0000.0001) %MON seaice_vice_mean             =   0.0000000000000E+00
(PID.TID 0000.0001) %MON seaice_vice_sd               =   0.0000000000000E+00
(PID.TID 0000.0001) %MON seaice_vice_del2             =   0.0000000000000E+00
(PID.TID 0000.0001) %MON seaice_area_max              =   3.0754474573101E-02
(PID.TID 0000.0001) %MON seaice_area_min              =   3.0754474573101E-02
(PID.TID 0000.0001) %MON seaice_area_mean             =   3.0754474573101E-02
(PID.TID 0000.0001) %MON seaice_area_sd               =   0.0000000000000E+00
(PID.TID 0000.0001) %MON seaice_area_del2             =   0.0000000000000E+00
(PID.TID 0000.0001) %MON seaice_heff_max              =   6.9008494499794E-03
(PID.TID 0000.0001) %MON seaice_heff_min              =   6.9008494499794E-03
(PID.TID 0000.0001) %MON seaice_heff_mean             =   6.9008494499794E-03
(PID.TID 0000.0001) %MON seaice_heff_sd               =   0.0000000000000E+00
(PID.TID 0000.0001) %MON seaice_heff_del2             =   0.0000000000000E+00
(PID.TID 0000.0001) %MON seaice_hsnow_max             =   0.0000000000000E+00
(PID.TID 0000.0001) %MON seaice_hsnow_min             =   0.0000000000000E+00
(PID.TID 0000.0001) %MON seaice_hsnow_mean            =   0.0000000000000E+00
(PID.TID 0000.0001) %MON seaice_hsnow_sd              =   0.0000000000000E+00
(PID.TID 0000.0001) %MON seaice_hsnow_del2            =   0.0000000000000E+00
(PID.TID 0000.0001) %MON seaice_hsalt_max             =   5.4654593398238E+01
(PID.TID 0000.0001) %MON seaice_hsalt_min             =   5.4654593398238E+01
(PID.TID 0000.0001) %MON seaice_hsalt_mean            =   5.4654593398238E+01
(PID.TID 0000.0001) %MON seaice_hsalt_sd              =   0.0000000000000E+00
(PID.TID 0000.0001) %MON seaice_hsalt_del2            =   0.0000000000000E+00
(PID.TID 0000.0001) // =======================================================
(PID.TID 0000.0001) // End MONITOR SEAICE statistics
(PID.TID 0000.0001) // =======================================================
 myIter=            6
(PID.TID 0000.0001) // Model state written, timestep         6
(PID.TID 0000.0001) 
 cg2d: Sum(rhs),rhsMax =   1.00000000000000E+00  3.22349931687375E-05
 cg2d: Sum(rhs),rhsMax =   1.00000000000000E+00  2.65835287231568E-05
(PID.TID 0000.0001) // =======================================================
(PID.TID 0000.0001) // Begin MONITOR dynamic field statistics
(PID.TID 0000.0001) // =======================================================
(PID.TID 0000.0001) %MON g__time_tsnumber             =                     7
(PID.TID 0000.0001) %MON g__time_secondsf             =   2.5200000000000E+04
(PID.TID 0000.0001) %MON g__dynstat_g_eta_max         =  -8.5768930566227E-03
(PID.TID 0000.0001) %MON g__dynstat_g_eta_min         =  -8.5768930566227E-03
(PID.TID 0000.0001) %MON g__dynstat_g_eta_mean        =  -8.5768930566227E-03
(PID.TID 0000.0001) %MON g__dynstat_g_eta_sd          =   0.0000000000000E+00
(PID.TID 0000.0001) %MON g__dynstat_g_eta_del2        =   0.0000000000000E+00
(PID.TID 0000.0001) %MON g__dynstat_g_uvel_max        =   5.5118567522877E-03
(PID.TID 0000.0001) %MON g__dynstat_g_uvel_min        =  -6.7419268752888E-03
(PID.TID 0000.0001) %MON g__dynstat_g_uvel_mean       =   2.1707070579934E-05
(PID.TID 0000.0001) %MON g__dynstat_g_uvel_sd         =   1.2384768699818E-03
(PID.TID 0000.0001) %MON g__dynstat_g_uvel_del2       =   0.0000000000000E+00
(PID.TID 0000.0001) %MON g__dynstat_g_vvel_max        =   2.4793427496460E-03
(PID.TID 0000.0001) %MON g__dynstat_g_vvel_min        =  -2.6140021322043E-03
(PID.TID 0000.0001) %MON g__dynstat_g_vvel_mean       =  -1.2172170974656E-05
(PID.TID 0000.0001) %MON g__dynstat_g_vvel_sd         =   5.8423656041441E-04
(PID.TID 0000.0001) %MON g__dynstat_g_vvel_del2       =   0.0000000000000E+00
(PID.TID 0000.0001) %MON g__dynstat_g_wvel_max        =   0.0000000000000E+00
(PID.TID 0000.0001) %MON g__dynstat_g_wvel_min        =   0.0000000000000E+00
(PID.TID 0000.0001) %MON g__dynstat_g_wvel_mean       =   0.0000000000000E+00
(PID.TID 0000.0001) %MON g__dynstat_g_wvel_sd         =   0.0000000000000E+00
(PID.TID 0000.0001) %MON g__dynstat_g_wvel_del2       =   0.0000000000000E+00
(PID.TID 0000.0001) %MON g__dynstat_g_theta_max       =   1.1142780355408E+00
(PID.TID 0000.0001) %MON g__dynstat_g_theta_min       =  -7.1355481662671E-02
(PID.TID 0000.0001) %MON g__dynstat_g_theta_mean      =   2.0793734101763E-02
(PID.TID 0000.0001) %MON g__dynstat_g_theta_sd        =   1.5464695423920E-01
(PID.TID 0000.0001) %MON g__dynstat_g_theta_del2      =   0.0000000000000E+00
(PID.TID 0000.0001) %MON g__dynstat_g_salt_max        =   1.0548391273676E-01
(PID.TID 0000.0001) %MON g__dynstat_g_salt_min        =  -3.5566462210936E-02
(PID.TID 0000.0001) %MON g__dynstat_g_salt_mean       =   3.3975330298695E-04
(PID.TID 0000.0001) %MON g__dynstat_g_salt_sd         =   1.6396041711903E-02
(PID.TID 0000.0001) %MON g__dynstat_g_salt_del2       =   0.0000000000000E+00
(PID.TID 0000.0001) %MON g__dynstat_g_sst_max         =  -7.1355481662671E-02
(PID.TID 0000.0001) %MON g__dynstat_g_sst_min         =  -7.1355481662671E-02
(PID.TID 0000.0001) %MON g__dynstat_g_sst_mean        =  -7.1355481662671E-02
(PID.TID 0000.0001) %MON g__dynstat_g_sst_sd          =   0.0000000000000E+00
(PID.TID 0000.0001) %MON g__dynstat_g_sst_del2        =   0.0000000000000E+00
(PID.TID 0000.0001) %MON g__dynstat_g_sss_max         =  -3.5566462210936E-02
(PID.TID 0000.0001) %MON g__dynstat_g_sss_min         =  -3.5566462210936E-02
(PID.TID 0000.0001) %MON g__dynstat_g_sss_mean        =  -3.5566462210936E-02
(PID.TID 0000.0001) %MON g__dynstat_g_sss_sd          =   0.0000000000000E+00
(PID.TID 0000.0001) %MON g__dynstat_g_sss_del2        =   0.0000000000000E+00
(PID.TID 0000.0001) %MON g__forcing_g_qnet_max        =  -4.4755710274391E+02
(PID.TID 0000.0001) %MON g__forcing_g_qnet_min        =  -4.4755710274391E+02
(PID.TID 0000.0001) %MON g__forcing_g_qnet_mean       =  -4.4755710274391E+02
(PID.TID 0000.0001) %MON g__forcing_g_qnet_sd         =   0.0000000000000E+00
(PID.TID 0000.0001) %MON g__forcing_g_qnet_del2       =   0.0000000000000E+00
(PID.TID 0000.0001) %MON g__forcing_g_qsw_max         =  -1.3532681722045E+00
(PID.TID 0000.0001) %MON g__forcing_g_qsw_min         =  -1.3532681722045E+00
(PID.TID 0000.0001) %MON g__forcing_g_qsw_mean        =  -1.3532681722045E+00
(PID.TID 0000.0001) %MON g__forcing_g_qsw_sd          =   2.2204460492503E-16
(PID.TID 0000.0001) %MON g__forcing_g_qsw_del2        =   0.0000000000000E+00
(PID.TID 0000.0001) %MON g__forcing_g_empmr_max       =   1.3592712689515E-03
(PID.TID 0000.0001) %MON g__forcing_g_empmr_min       =   1.3592712689515E-03
(PID.TID 0000.0001) %MON g__forcing_g_empmr_mean      =   1.3592712689515E-03
(PID.TID 0000.0001) %MON g__forcing_g_empmr_sd        =   0.0000000000000E+00
(PID.TID 0000.0001) %MON g__forcing_g_empmr_del2      =   0.0000000000000E+00
(PID.TID 0000.0001) %MON g__forcing_g_fu_max          =   4.3587151519232E-04
(PID.TID 0000.0001) %MON g__forcing_g_fu_min          =   4.3587151519232E-04
(PID.TID 0000.0001) %MON g__forcing_g_fu_mean         =   4.3587151519232E-04
(PID.TID 0000.0001) %MON g__forcing_g_fu_sd           =   0.0000000000000E+00
(PID.TID 0000.0001) %MON g__forcing_g_fu_del2         =   0.0000000000000E+00
(PID.TID 0000.0001) %MON g__forcing_g_fv_max          =   4.3587151519232E-04
(PID.TID 0000.0001) %MON g__forcing_g_fv_min          =   4.3587151519232E-04
(PID.TID 0000.0001) %MON g__forcing_g_fv_mean         =   4.3587151519232E-04
(PID.TID 0000.0001) %MON g__forcing_g_fv_sd           =   0.0000000000000E+00
(PID.TID 0000.0001) %MON g__forcing_g_fv_del2         =   0.0000000000000E+00
(PID.TID 0000.0001) %MON g__g_vcfl_g_uvel_max         =   4.8541873502080E-03
(PID.TID 0000.0001) %MON g__g_vcfl_g_vvel_max         =   1.8820815351871E-03
(PID.TID 0000.0001) %MON g__g_vcfl_g_wvel_max         =   0.0000000000000E+00
(PID.TID 0000.0001) %MON g__g_vcfl_g_W_hf_max         =   0.0000000000000E+00
(PID.TID 0000.0001) // =======================================================
(PID.TID 0000.0001) // End MONITOR dynamic field statistics
(PID.TID 0000.0001) // =======================================================
(PID.TID 0000.0001) // =======================================================
(PID.TID 0000.0001) // Begin MONITOR SEAICE statistics
(PID.TID 0000.0001) // =======================================================
(PID.TID 0000.0001) %MON seaice_tsnumber              =                     7
(PID.TID 0000.0001) %MON seaice_time_sec              =   2.5200000000000E+04
(PID.TID 0000.0001) %MON seaice_uice_max              =   0.0000000000000E+00
(PID.TID 0000.0001) %MON seaice_uice_min              =   0.0000000000000E+00
(PID.TID 0000.0001) %MON seaice_uice_mean             =   0.0000000000000E+00
(PID.TID 0000.0001) %MON seaice_uice_sd               =   0.0000000000000E+00
(PID.TID 0000.0001) %MON seaice_uice_del2             =   0.0000000000000E+00
(PID.TID 0000.0001) %MON seaice_vice_max              =   0.0000000000000E+00
(PID.TID 0000.0001) %MON seaice_vice_min              =   0.0000000000000E+00
(PID.TID 0000.0001) %MON seaice_vice_mean             =   0.0000000000000E+00
(PID.TID 0000.0001) %MON seaice_vice_sd               =   0.0000000000000E+00
(PID.TID 0000.0001) %MON seaice_vice_del2             =   0.0000000000000E+00
(PID.TID 0000.0001) %MON seaice_area_max              =   3.5957970791881E-02
(PID.TID 0000.0001) %MON seaice_area_min              =   3.5957970791881E-02
(PID.TID 0000.0001) %MON seaice_area_mean             =   3.5957970791881E-02
(PID.TID 0000.0001) %MON seaice_area_sd               =   0.0000000000000E+00
(PID.TID 0000.0001) %MON seaice_area_del2             =   0.0000000000000E+00
(PID.TID 0000.0001) %MON seaice_heff_max              =   7.4185489875969E-03
(PID.TID 0000.0001) %MON seaice_heff_min              =   7.4185489875969E-03
(PID.TID 0000.0001) %MON seaice_heff_mean             =   7.4185489875969E-03
(PID.TID 0000.0001) %MON seaice_heff_sd               =   0.0000000000000E+00
(PID.TID 0000.0001) %MON seaice_heff_del2             =   0.0000000000000E+00
(PID.TID 0000.0001) %MON seaice_hsnow_max             =   0.0000000000000E+00
(PID.TID 0000.0001) %MON seaice_hsnow_min             =   0.0000000000000E+00
(PID.TID 0000.0001) %MON seaice_hsnow_mean            =   0.0000000000000E+00
(PID.TID 0000.0001) %MON seaice_hsnow_sd              =   0.0000000000000E+00
(PID.TID 0000.0001) %MON seaice_hsnow_del2            =   0.0000000000000E+00
(PID.TID 0000.0001) %MON seaice_hsalt_max             =   5.8755606391718E+01
(PID.TID 0000.0001) %MON seaice_hsalt_min             =   5.8755606391718E+01
(PID.TID 0000.0001) %MON seaice_hsalt_mean            =   5.8755606391718E+01
(PID.TID 0000.0001) %MON seaice_hsalt_sd              =   0.0000000000000E+00
(PID.TID 0000.0001) %MON seaice_hsalt_del2            =   0.0000000000000E+00
(PID.TID 0000.0001) // =======================================================
(PID.TID 0000.0001) // End MONITOR SEAICE statistics
(PID.TID 0000.0001) // =======================================================
 myIter=            7
(PID.TID 0000.0001) // Model state written, timestep         7
(PID.TID 0000.0001) 
 cg2d: Sum(rhs),rhsMax =   1.00000000000000E+00  4.17177830547650E-05
 cg2d: Sum(rhs),rhsMax =   1.00000000000000E+00  2.82563874062722E-05
(PID.TID 0000.0001) // =======================================================
(PID.TID 0000.0001) // Begin MONITOR dynamic field statistics
(PID.TID 0000.0001) // =======================================================
(PID.TID 0000.0001) %MON g__time_tsnumber             =                     8
(PID.TID 0000.0001) %MON g__time_secondsf             =   2.8800000000000E+04
(PID.TID 0000.0001) %MON g__dynstat_g_eta_max         =  -1.1100016741038E-02
(PID.TID 0000.0001) %MON g__dynstat_g_eta_min         =  -1.1100016741038E-02
(PID.TID 0000.0001) %MON g__dynstat_g_eta_mean        =  -1.1100016741038E-02
(PID.TID 0000.0001) %MON g__dynstat_g_eta_sd          =   0.0000000000000E+00
(PID.TID 0000.0001) %MON g__dynstat_g_eta_del2        =   0.0000000000000E+00
(PID.TID 0000.0001) %MON g__dynstat_g_uvel_max        =   2.8671480498446E-03
(PID.TID 0000.0001) %MON g__dynstat_g_uvel_min        =  -2.4886731192212E-03
(PID.TID 0000.0001) %MON g__dynstat_g_uvel_mean       =   1.9026181881467E-05
(PID.TID 0000.0001) %MON g__dynstat_g_uvel_sd         =   6.1664434779089E-04
(PID.TID 0000.0001) %MON g__dynstat_g_uvel_del2       =   0.0000000000000E+00
(PID.TID 0000.0001) %MON g__dynstat_g_vvel_max        =   3.1451572778858E-03
(PID.TID 0000.0001) %MON g__dynstat_g_vvel_min        =  -5.2420764221490E-03
(PID.TID 0000.0001) %MON g__dynstat_g_vvel_mean       =  -1.6979090870594E-05
(PID.TID 0000.0001) %MON g__dynstat_g_vvel_sd         =   8.7217981520191E-04
(PID.TID 0000.0001) %MON g__dynstat_g_vvel_del2       =   0.0000000000000E+00
(PID.TID 0000.0001) %MON g__dynstat_g_wvel_max        =   0.0000000000000E+00
(PID.TID 0000.0001) %MON g__dynstat_g_wvel_min        =   0.0000000000000E+00
(PID.TID 0000.0001) %MON g__dynstat_g_wvel_mean       =   0.0000000000000E+00
(PID.TID 0000.0001) %MON g__dynstat_g_wvel_sd         =   0.0000000000000E+00
(PID.TID 0000.0001) %MON g__dynstat_g_wvel_del2       =   0.0000000000000E+00
(PID.TID 0000.0001) %MON g__dynstat_g_theta_max       =   1.7888752252916E+00
(PID.TID 0000.0001) %MON g__dynstat_g_theta_min       =  -3.9904168637971E-01
(PID.TID 0000.0001) %MON g__dynstat_g_theta_mean      =   2.1193762261161E-02
(PID.TID 0000.0001) %MON g__dynstat_g_theta_sd        =   2.5675416669904E-01
(PID.TID 0000.0001) %MON g__dynstat_g_theta_del2      =   0.0000000000000E+00
(PID.TID 0000.0001) %MON g__dynstat_g_salt_max        =   1.6145843812756E-01
(PID.TID 0000.0001) %MON g__dynstat_g_salt_min        =  -5.9148132540507E-02
(PID.TID 0000.0001) %MON g__dynstat_g_salt_mean       =   4.3966643729544E-04
(PID.TID 0000.0001) %MON g__dynstat_g_salt_sd         =   2.5257072955421E-02
(PID.TID 0000.0001) %MON g__dynstat_g_salt_del2       =   0.0000000000000E+00
(PID.TID 0000.0001) %MON g__dynstat_g_sst_max         =  -1.2241985498661E-01
(PID.TID 0000.0001) %MON g__dynstat_g_sst_min         =  -1.2241985498661E-01
(PID.TID 0000.0001) %MON g__dynstat_g_sst_mean        =  -1.2241985498661E-01
(PID.TID 0000.0001) %MON g__dynstat_g_sst_sd          =   0.0000000000000E+00
(PID.TID 0000.0001) %MON g__dynstat_g_sst_del2        =   0.0000000000000E+00
(PID.TID 0000.0001) %MON g__dynstat_g_sss_max         =  -3.8403581391555E-02
(PID.TID 0000.0001) %MON g__dynstat_g_sss_min         =  -3.8403581391555E-02
(PID.TID 0000.0001) %MON g__dynstat_g_sss_mean        =  -3.8403581391555E-02
(PID.TID 0000.0001) %MON g__dynstat_g_sss_sd          =   0.0000000000000E+00
(PID.TID 0000.0001) %MON g__dynstat_g_sss_del2        =   0.0000000000000E+00
(PID.TID 0000.0001) %MON g__forcing_g_qnet_max        =  -2.3347114905130E+02
(PID.TID 0000.0001) %MON g__forcing_g_qnet_min        =  -2.3347114905130E+02
(PID.TID 0000.0001) %MON g__forcing_g_qnet_mean       =  -2.3347114905130E+02
(PID.TID 0000.0001) %MON g__forcing_g_qnet_sd         =   0.0000000000000E+00
(PID.TID 0000.0001) %MON g__forcing_g_qnet_del2       =   0.0000000000000E+00
(PID.TID 0000.0001) %MON g__forcing_g_qsw_max         =  -1.3170791651933E+00
(PID.TID 0000.0001) %MON g__forcing_g_qsw_min         =  -1.3170791651933E+00
(PID.TID 0000.0001) %MON g__forcing_g_qsw_mean        =  -1.3170791651933E+00
(PID.TID 0000.0001) %MON g__forcing_g_qsw_sd          =   0.0000000000000E+00
(PID.TID 0000.0001) %MON g__forcing_g_qsw_del2        =   0.0000000000000E+00
(PID.TID 0000.0001) %MON g__forcing_g_empmr_max       =   7.1979111774592E-04
(PID.TID 0000.0001) %MON g__forcing_g_empmr_min       =   7.1979111774592E-04
(PID.TID 0000.0001) %MON g__forcing_g_empmr_mean      =   7.1979111774592E-04
(PID.TID 0000.0001) %MON g__forcing_g_empmr_sd        =   0.0000000000000E+00
(PID.TID 0000.0001) %MON g__forcing_g_empmr_del2      =   0.0000000000000E+00
(PID.TID 0000.0001) %MON g__forcing_g_fu_max          =   4.2643641252518E-04
(PID.TID 0000.0001) %MON g__forcing_g_fu_min          =   4.2643641252518E-04
(PID.TID 0000.0001) %MON g__forcing_g_fu_mean         =   4.2643641252518E-04
(PID.TID 0000.0001) %MON g__forcing_g_fu_sd           =   0.0000000000000E+00
(PID.TID 0000.0001) %MON g__forcing_g_fu_del2         =   0.0000000000000E+00
(PID.TID 0000.0001) %MON g__forcing_g_fv_max          =   4.2643641252518E-04
(PID.TID 0000.0001) %MON g__forcing_g_fv_min          =   4.2643641252518E-04
(PID.TID 0000.0001) %MON g__forcing_g_fv_mean         =   4.2643641252518E-04
(PID.TID 0000.0001) %MON g__forcing_g_fv_sd           =   0.0000000000000E+00
(PID.TID 0000.0001) %MON g__forcing_g_fv_del2         =   0.0000000000000E+00
(PID.TID 0000.0001) %MON g__g_vcfl_g_uvel_max         =   2.0643465958881E-03
(PID.TID 0000.0001) %MON g__g_vcfl_g_vvel_max         =   3.7742950239473E-03
(PID.TID 0000.0001) %MON g__g_vcfl_g_wvel_max         =   0.0000000000000E+00
(PID.TID 0000.0001) %MON g__g_vcfl_g_W_hf_max         =   0.0000000000000E+00
(PID.TID 0000.0001) // =======================================================
(PID.TID 0000.0001) // End MONITOR dynamic field statistics
(PID.TID 0000.0001) // =======================================================
(PID.TID 0000.0001) // =======================================================
(PID.TID 0000.0001) // Begin MONITOR SEAICE statistics
(PID.TID 0000.0001) // =======================================================
(PID.TID 0000.0001) %MON seaice_tsnumber              =                     8
(PID.TID 0000.0001) %MON seaice_time_sec              =   2.8800000000000E+04
(PID.TID 0000.0001) %MON seaice_uice_max              =   0.0000000000000E+00
(PID.TID 0000.0001) %MON seaice_uice_min              =   0.0000000000000E+00
(PID.TID 0000.0001) %MON seaice_uice_mean             =   0.0000000000000E+00
(PID.TID 0000.0001) %MON seaice_uice_sd               =   0.0000000000000E+00
(PID.TID 0000.0001) %MON seaice_uice_del2             =   0.0000000000000E+00
(PID.TID 0000.0001) %MON seaice_vice_max              =   0.0000000000000E+00
(PID.TID 0000.0001) %MON seaice_vice_min              =   0.0000000000000E+00
(PID.TID 0000.0001) %MON seaice_vice_mean             =   0.0000000000000E+00
(PID.TID 0000.0001) %MON seaice_vice_sd               =   0.0000000000000E+00
(PID.TID 0000.0001) %MON seaice_vice_del2             =   0.0000000000000E+00
(PID.TID 0000.0001) %MON seaice_area_max              =   4.1055156373678E-02
(PID.TID 0000.0001) %MON seaice_area_min              =   4.1055156373678E-02
(PID.TID 0000.0001) %MON seaice_area_mean             =   4.1055156373678E-02
(PID.TID 0000.0001) %MON seaice_area_sd               =   0.0000000000000E+00
(PID.TID 0000.0001) %MON seaice_area_del2             =   0.0000000000000E+00
(PID.TID 0000.0001) %MON seaice_heff_max              =   7.8419590356597E-03
(PID.TID 0000.0001) %MON seaice_heff_min              =   7.8419590356597E-03
(PID.TID 0000.0001) %MON seaice_heff_mean             =   7.8419590356597E-03
(PID.TID 0000.0001) %MON seaice_heff_sd               =   0.0000000000000E+00
(PID.TID 0000.0001) %MON seaice_heff_del2             =   0.0000000000000E+00
(PID.TID 0000.0001) %MON seaice_hsnow_max             =   0.0000000000000E+00
(PID.TID 0000.0001) %MON seaice_hsnow_min             =   0.0000000000000E+00
(PID.TID 0000.0001) %MON seaice_hsnow_mean            =   0.0000000000000E+00
(PID.TID 0000.0001) %MON seaice_hsnow_sd              =   0.0000000000000E+00
(PID.TID 0000.0001) %MON seaice_hsnow_del2            =   0.0000000000000E+00
(PID.TID 0000.0001) %MON seaice_hsalt_max             =   6.2109822577408E+01
(PID.TID 0000.0001) %MON seaice_hsalt_min             =   6.2109822577408E+01
(PID.TID 0000.0001) %MON seaice_hsalt_mean            =   6.2109822577408E+01
(PID.TID 0000.0001) %MON seaice_hsalt_sd              =   0.0000000000000E+00
(PID.TID 0000.0001) %MON seaice_hsalt_del2            =   0.0000000000000E+00
(PID.TID 0000.0001) // =======================================================
(PID.TID 0000.0001) // End MONITOR SEAICE statistics
(PID.TID 0000.0001) // =======================================================
 myIter=            8
(PID.TID 0000.0001) // Model state written, timestep         8
(PID.TID 0000.0001) 
 cg2d: Sum(rhs),rhsMax =   1.00000000000000E+00  5.80436930413264E-05
 cg2d: Sum(rhs),rhsMax =   1.00000000000000E+00  2.96382495632280E-05
(PID.TID 0000.0001) // =======================================================
(PID.TID 0000.0001) // Begin MONITOR dynamic field statistics
(PID.TID 0000.0001) // =======================================================
(PID.TID 0000.0001) %MON g__time_tsnumber             =                     9
(PID.TID 0000.0001) %MON g__time_secondsf             =   3.2400000000000E+04
(PID.TID 0000.0001) %MON g__dynstat_g_eta_max         =  -1.5443916653596E-02
(PID.TID 0000.0001) %MON g__dynstat_g_eta_min         =  -1.5443916653596E-02
(PID.TID 0000.0001) %MON g__dynstat_g_eta_mean        =  -1.5443916653596E-02
(PID.TID 0000.0001) %MON g__dynstat_g_eta_sd          =   0.0000000000000E+00
(PID.TID 0000.0001) %MON g__dynstat_g_eta_del2        =   0.0000000000000E+00
(PID.TID 0000.0001) %MON g__dynstat_g_uvel_max        =   2.2572477154179E-03
(PID.TID 0000.0001) %MON g__dynstat_g_uvel_min        =  -1.2850478317556E-03
(PID.TID 0000.0001) %MON g__dynstat_g_uvel_mean       =   1.4649278366956E-05
(PID.TID 0000.0001) %MON g__dynstat_g_uvel_sd         =   3.9882223102330E-04
(PID.TID 0000.0001) %MON g__dynstat_g_uvel_del2       =   0.0000000000000E+00
(PID.TID 0000.0001) %MON g__dynstat_g_vvel_max        =   6.4924764964154E-03
(PID.TID 0000.0001) %MON g__dynstat_g_vvel_min        =  -7.5818684434672E-03
(PID.TID 0000.0001) %MON g__dynstat_g_vvel_mean       =  -2.0475580492628E-05
(PID.TID 0000.0001) %MON g__dynstat_g_vvel_sd         =   1.4236881984133E-03
(PID.TID 0000.0001) %MON g__dynstat_g_vvel_del2       =   0.0000000000000E+00
(PID.TID 0000.0001) %MON g__dynstat_g_wvel_max        =   0.0000000000000E+00
(PID.TID 0000.0001) %MON g__dynstat_g_wvel_min        =   0.0000000000000E+00
(PID.TID 0000.0001) %MON g__dynstat_g_wvel_mean       =   0.0000000000000E+00
(PID.TID 0000.0001) %MON g__dynstat_g_wvel_sd         =   0.0000000000000E+00
(PID.TID 0000.0001) %MON g__dynstat_g_wvel_del2       =   0.0000000000000E+00
(PID.TID 0000.0001) %MON g__dynstat_g_theta_max       =   2.4734884795092E+00
(PID.TID 0000.0001) %MON g__dynstat_g_theta_min       =  -7.5451853641938E-01
(PID.TID 0000.0001) %MON g__dynstat_g_theta_mean      =   2.1892973938590E-02
(PID.TID 0000.0001) %MON g__dynstat_g_theta_sd        =   3.6529118624457E-01
(PID.TID 0000.0001) %MON g__dynstat_g_theta_del2      =   0.0000000000000E+00
(PID.TID 0000.0001) %MON g__dynstat_g_salt_max        =   2.1623903980808E-01
(PID.TID 0000.0001) %MON g__dynstat_g_salt_min        =  -8.6119577040350E-02
(PID.TID 0000.0001) %MON g__dynstat_g_salt_mean       =   6.1163933534683E-04
(PID.TID 0000.0001) %MON g__dynstat_g_salt_sd         =   3.3925389829809E-02
(PID.TID 0000.0001) %MON g__dynstat_g_salt_del2       =   0.0000000000000E+00
(PID.TID 0000.0001) %MON g__dynstat_g_sst_max         =  -2.3172486876295E-01
(PID.TID 0000.0001) %MON g__dynstat_g_sst_min         =  -2.3172486876295E-01
(PID.TID 0000.0001) %MON g__dynstat_g_sst_mean        =  -2.3172486876295E-01
(PID.TID 0000.0001) %MON g__dynstat_g_sst_sd          =   0.0000000000000E+00
(PID.TID 0000.0001) %MON g__dynstat_g_sst_del2        =   0.0000000000000E+00
(PID.TID 0000.0001) %MON g__dynstat_g_sss_max         =  -4.4798230112695E-02
(PID.TID 0000.0001) %MON g__dynstat_g_sss_min         =  -4.4798230112695E-02
(PID.TID 0000.0001) %MON g__dynstat_g_sss_mean        =  -4.4798230112695E-02
(PID.TID 0000.0001) %MON g__dynstat_g_sss_sd          =   0.0000000000000E+00
(PID.TID 0000.0001) %MON g__dynstat_g_sss_del2        =   0.0000000000000E+00
(PID.TID 0000.0001) %MON g__forcing_g_qnet_max        =  -4.0808565578359E+02
(PID.TID 0000.0001) %MON g__forcing_g_qnet_min        =  -4.0808565578359E+02
(PID.TID 0000.0001) %MON g__forcing_g_qnet_mean       =  -4.0808565578359E+02
(PID.TID 0000.0001) %MON g__forcing_g_qnet_sd         =   0.0000000000000E+00
(PID.TID 0000.0001) %MON g__forcing_g_qnet_del2       =   0.0000000000000E+00
(PID.TID 0000.0001) %MON g__forcing_g_qsw_max         =  -1.2864063093540E+00
(PID.TID 0000.0001) %MON g__forcing_g_qsw_min         =  -1.2864063093540E+00
(PID.TID 0000.0001) %MON g__forcing_g_qsw_mean        =  -1.2864063093540E+00
(PID.TID 0000.0001) %MON g__forcing_g_qsw_sd          =   0.0000000000000E+00
(PID.TID 0000.0001) %MON g__forcing_g_qsw_del2        =   0.0000000000000E+00
(PID.TID 0000.0001) %MON g__forcing_g_empmr_max       =   1.2392181139388E-03
(PID.TID 0000.0001) %MON g__forcing_g_empmr_min       =   1.2392181139388E-03
(PID.TID 0000.0001) %MON g__forcing_g_empmr_mean      =   1.2392181139388E-03
(PID.TID 0000.0001) %MON g__forcing_g_empmr_sd        =   0.0000000000000E+00
(PID.TID 0000.0001) %MON g__forcing_g_empmr_del2      =   0.0000000000000E+00
(PID.TID 0000.0001) %MON g__forcing_g_fu_max          =   4.1375977359160E-04
(PID.TID 0000.0001) %MON g__forcing_g_fu_min          =   4.1375977359160E-04
(PID.TID 0000.0001) %MON g__forcing_g_fu_mean         =   4.1375977359160E-04
(PID.TID 0000.0001) %MON g__forcing_g_fu_sd           =   0.0000000000000E+00
(PID.TID 0000.0001) %MON g__forcing_g_fu_del2         =   0.0000000000000E+00
(PID.TID 0000.0001) %MON g__forcing_g_fv_max          =   4.1375977359160E-04
(PID.TID 0000.0001) %MON g__forcing_g_fv_min          =   4.1375977359160E-04
(PID.TID 0000.0001) %MON g__forcing_g_fv_mean         =   4.1375977359160E-04
(PID.TID 0000.0001) %MON g__forcing_g_fv_sd           =   0.0000000000000E+00
(PID.TID 0000.0001) %MON g__forcing_g_fv_del2         =   0.0000000000000E+00
(PID.TID 0000.0001) %MON g__g_vcfl_g_uvel_max         =   1.6252183551009E-03
(PID.TID 0000.0001) %MON g__g_vcfl_g_vvel_max         =   5.4589452792964E-03
(PID.TID 0000.0001) %MON g__g_vcfl_g_wvel_max         =   0.0000000000000E+00
(PID.TID 0000.0001) %MON g__g_vcfl_g_W_hf_max         =   0.0000000000000E+00
(PID.TID 0000.0001) // =======================================================
(PID.TID 0000.0001) // End MONITOR dynamic field statistics
(PID.TID 0000.0001) // =======================================================
(PID.TID 0000.0001) // =======================================================
(PID.TID 0000.0001) // Begin MONITOR SEAICE statistics
(PID.TID 0000.0001) // =======================================================
(PID.TID 0000.0001) %MON seaice_tsnumber              =                     9
(PID.TID 0000.0001) %MON seaice_time_sec              =   3.2400000000000E+04
(PID.TID 0000.0001) %MON seaice_uice_max              =   0.0000000000000E+00
(PID.TID 0000.0001) %MON seaice_uice_min              =   0.0000000000000E+00
(PID.TID 0000.0001) %MON seaice_uice_mean             =   0.0000000000000E+00
(PID.TID 0000.0001) %MON seaice_uice_sd               =   0.0000000000000E+00
(PID.TID 0000.0001) %MON seaice_uice_del2             =   0.0000000000000E+00
(PID.TID 0000.0001) %MON seaice_vice_max              =   0.0000000000000E+00
(PID.TID 0000.0001) %MON seaice_vice_min              =   0.0000000000000E+00
(PID.TID 0000.0001) %MON seaice_vice_mean             =   0.0000000000000E+00
(PID.TID 0000.0001) %MON seaice_vice_sd               =   0.0000000000000E+00
(PID.TID 0000.0001) %MON seaice_vice_del2             =   0.0000000000000E+00
(PID.TID 0000.0001) %MON seaice_area_max              =   4.6044929244152E-02
(PID.TID 0000.0001) %MON seaice_area_min              =   4.6044929244152E-02
(PID.TID 0000.0001) %MON seaice_area_mean             =   4.6044929244152E-02
(PID.TID 0000.0001) %MON seaice_area_sd               =   0.0000000000000E+00
(PID.TID 0000.0001) %MON seaice_area_del2             =   0.0000000000000E+00
(PID.TID 0000.0001) %MON seaice_heff_max              =   8.1783948387871E-03
(PID.TID 0000.0001) %MON seaice_heff_min              =   8.1783948387871E-03
(PID.TID 0000.0001) %MON seaice_heff_mean             =   8.1783948387871E-03
(PID.TID 0000.0001) %MON seaice_heff_sd               =   0.0000000000000E+00
(PID.TID 0000.0001) %MON seaice_heff_del2             =   0.0000000000000E+00
(PID.TID 0000.0001) %MON seaice_hsnow_max             =   0.0000000000000E+00
(PID.TID 0000.0001) %MON seaice_hsnow_min             =   0.0000000000000E+00
(PID.TID 0000.0001) %MON seaice_hsnow_mean            =   0.0000000000000E+00
(PID.TID 0000.0001) %MON seaice_hsnow_sd              =   0.0000000000000E+00
(PID.TID 0000.0001) %MON seaice_hsnow_del2            =   0.0000000000000E+00
(PID.TID 0000.0001) %MON seaice_hsalt_max             =   6.4775131916463E+01
(PID.TID 0000.0001) %MON seaice_hsalt_min             =   6.4775131916463E+01
(PID.TID 0000.0001) %MON seaice_hsalt_mean            =   6.4775131916463E+01
(PID.TID 0000.0001) %MON seaice_hsalt_sd              =   0.0000000000000E+00
(PID.TID 0000.0001) %MON seaice_hsalt_del2            =   0.0000000000000E+00
(PID.TID 0000.0001) // =======================================================
(PID.TID 0000.0001) // End MONITOR SEAICE statistics
(PID.TID 0000.0001) // =======================================================
 myIter=            9
(PID.TID 0000.0001) // Model state written, timestep         9
(PID.TID 0000.0001) 
 cg2d: Sum(rhs),rhsMax =   1.00000000000000E+00  8.89859187403300E-05
 cg2d: Sum(rhs),rhsMax =   1.00000000000000E+00  3.06558785220526E-05
(PID.TID 0000.0001) // =======================================================
(PID.TID 0000.0001) // Begin MONITOR dynamic field statistics
(PID.TID 0000.0001) // =======================================================
(PID.TID 0000.0001) %MON g__time_tsnumber             =                    10
(PID.TID 0000.0001) %MON g__time_secondsf             =   3.6000000000000E+04
(PID.TID 0000.0001) %MON g__dynstat_g_eta_max         =  -2.3676837919144E-02
(PID.TID 0000.0001) %MON g__dynstat_g_eta_min         =  -2.3676837919144E-02
(PID.TID 0000.0001) %MON g__dynstat_g_eta_mean        =  -2.3676837919144E-02
(PID.TID 0000.0001) %MON g__dynstat_g_eta_sd          =   0.0000000000000E+00
(PID.TID 0000.0001) %MON g__dynstat_g_eta_del2        =   0.0000000000000E+00
(PID.TID 0000.0001) %MON g__dynstat_g_uvel_max        =   8.5747594117628E-02
(PID.TID 0000.0001) %MON g__dynstat_g_uvel_min        =  -6.9595652548449E-02
(PID.TID 0000.0001) %MON g__dynstat_g_uvel_mean       =   9.1513709049075E-06
(PID.TID 0000.0001) %MON g__dynstat_g_uvel_sd         =   1.5619647705751E-02
(PID.TID 0000.0001) %MON g__dynstat_g_uvel_del2       =   0.0000000000000E+00
(PID.TID 0000.0001) %MON g__dynstat_g_vvel_max        =   3.8893607199669E-02
(PID.TID 0000.0001) %MON g__dynstat_g_vvel_min        =  -3.7384427539639E-02
(PID.TID 0000.0001) %MON g__dynstat_g_vvel_mean       =  -2.2175366271941E-05
(PID.TID 0000.0001) %MON g__dynstat_g_vvel_sd         =   7.7086098824152E-03
(PID.TID 0000.0001) %MON g__dynstat_g_vvel_del2       =   0.0000000000000E+00
(PID.TID 0000.0001) %MON g__dynstat_g_wvel_max        =   0.0000000000000E+00
(PID.TID 0000.0001) %MON g__dynstat_g_wvel_min        =   0.0000000000000E+00
(PID.TID 0000.0001) %MON g__dynstat_g_wvel_mean       =   0.0000000000000E+00
(PID.TID 0000.0001) %MON g__dynstat_g_wvel_sd         =   0.0000000000000E+00
(PID.TID 0000.0001) %MON g__dynstat_g_wvel_del2       =   0.0000000000000E+00
(PID.TID 0000.0001) %MON g__dynstat_g_theta_max       =   2.4734452226248E+00
(PID.TID 0000.0001) %MON g__dynstat_g_theta_min       =  -3.9788175454937E+00
(PID.TID 0000.0001) %MON g__dynstat_g_theta_mean      =   2.3230821930989E-02
(PID.TID 0000.0001) %MON g__dynstat_g_theta_sd        =   7.1888173308293E-01
(PID.TID 0000.0001) %MON g__dynstat_g_theta_del2      =   0.0000000000000E+00
(PID.TID 0000.0001) %MON g__dynstat_g_salt_max        =   2.1623590049166E-01
(PID.TID 0000.0001) %MON g__dynstat_g_salt_min        =  -1.6482011634770E-01
(PID.TID 0000.0001) %MON g__dynstat_g_salt_mean       =   9.3752924595696E-04
(PID.TID 0000.0001) %MON g__dynstat_g_salt_sd         =   3.7956422939014E-02
(PID.TID 0000.0001) %MON g__dynstat_g_salt_del2       =   0.0000000000000E+00
(PID.TID 0000.0001) %MON g__dynstat_g_sst_max         =   6.5409409498160E-01
(PID.TID 0000.0001) %MON g__dynstat_g_sst_min         =   6.5409409498160E-01
(PID.TID 0000.0001) %MON g__dynstat_g_sst_mean        =   6.5409409498160E-01
(PID.TID 0000.0001) %MON g__dynstat_g_sst_sd          =   0.0000000000000E+00
(PID.TID 0000.0001) %MON g__dynstat_g_sst_del2        =   0.0000000000000E+00
(PID.TID 0000.0001) %MON g__dynstat_g_sss_max         =  -7.1696857678489E-03
(PID.TID 0000.0001) %MON g__dynstat_g_sss_min         =  -7.1696857678489E-03
(PID.TID 0000.0001) %MON g__dynstat_g_sss_mean        =  -7.1696857678489E-03
(PID.TID 0000.0001) %MON g__dynstat_g_sss_sd          =   0.0000000000000E+00
(PID.TID 0000.0001) %MON g__dynstat_g_sss_del2        =   0.0000000000000E+00
(PID.TID 0000.0001) %MON g__forcing_g_qnet_max        =  -7.8081730174061E+02
(PID.TID 0000.0001) %MON g__forcing_g_qnet_min        =  -7.8081730174061E+02
(PID.TID 0000.0001) %MON g__forcing_g_qnet_mean       =  -7.8081730174061E+02
(PID.TID 0000.0001) %MON g__forcing_g_qnet_sd         =   0.0000000000000E+00
(PID.TID 0000.0001) %MON g__forcing_g_qnet_del2       =   0.0000000000000E+00
(PID.TID 0000.0001) %MON g__forcing_g_qsw_max         =  -1.2461125764208E+00
(PID.TID 0000.0001) %MON g__forcing_g_qsw_min         =  -1.2461125764208E+00
(PID.TID 0000.0001) %MON g__forcing_g_qsw_mean        =  -1.2461125764208E+00
(PID.TID 0000.0001) %MON g__forcing_g_qsw_sd          =   0.0000000000000E+00
(PID.TID 0000.0001) %MON g__forcing_g_qsw_del2        =   0.0000000000000E+00
(PID.TID 0000.0001) %MON g__forcing_g_empmr_max       =   2.3486694832537E-03
(PID.TID 0000.0001) %MON g__forcing_g_empmr_min       =   2.3486694832537E-03
(PID.TID 0000.0001) %MON g__forcing_g_empmr_mean      =   2.3486694832537E-03
(PID.TID 0000.0001) %MON g__forcing_g_empmr_sd        =   4.3368086899420E-19
(PID.TID 0000.0001) %MON g__forcing_g_empmr_del2      =   0.0000000000000E+00
(PID.TID 0000.0001) %MON g__forcing_g_fu_max          =   3.9570722862012E-04
(PID.TID 0000.0001) %MON g__forcing_g_fu_min          =   3.9570722862012E-04
(PID.TID 0000.0001) %MON g__forcing_g_fu_mean         =   3.9570722862012E-04
(PID.TID 0000.0001) %MON g__forcing_g_fu_sd           =   0.0000000000000E+00
(PID.TID 0000.0001) %MON g__forcing_g_fu_del2         =   0.0000000000000E+00
(PID.TID 0000.0001) %MON g__forcing_g_fv_max          =   3.9570722862012E-04
(PID.TID 0000.0001) %MON g__forcing_g_fv_min          =   3.9570722862012E-04
(PID.TID 0000.0001) %MON g__forcing_g_fv_mean         =   3.9570722862012E-04
(PID.TID 0000.0001) %MON g__forcing_g_fv_sd           =   0.0000000000000E+00
(PID.TID 0000.0001) %MON g__forcing_g_fv_del2         =   0.0000000000000E+00
(PID.TID 0000.0001) %MON g__g_vcfl_g_uvel_max         =   6.1738267764692E-02
(PID.TID 0000.0001) %MON g__g_vcfl_g_vvel_max         =   2.8003397183761E-02
(PID.TID 0000.0001) %MON g__g_vcfl_g_wvel_max         =   0.0000000000000E+00
(PID.TID 0000.0001) %MON g__g_vcfl_g_W_hf_max         =   0.0000000000000E+00
(PID.TID 0000.0001) // =======================================================
(PID.TID 0000.0001) // End MONITOR dynamic field statistics
(PID.TID 0000.0001) // =======================================================
(PID.TID 0000.0001) // =======================================================
(PID.TID 0000.0001) // Begin MONITOR SEAICE statistics
(PID.TID 0000.0001) // =======================================================
(PID.TID 0000.0001) %MON seaice_tsnumber              =                    10
(PID.TID 0000.0001) %MON seaice_time_sec              =   3.6000000000000E+04
(PID.TID 0000.0001) %MON seaice_uice_max              =   0.0000000000000E+00
(PID.TID 0000.0001) %MON seaice_uice_min              =   0.0000000000000E+00
(PID.TID 0000.0001) %MON seaice_uice_mean             =   0.0000000000000E+00
(PID.TID 0000.0001) %MON seaice_uice_sd               =   0.0000000000000E+00
(PID.TID 0000.0001) %MON seaice_uice_del2             =   0.0000000000000E+00
(PID.TID 0000.0001) %MON seaice_vice_max              =   0.0000000000000E+00
(PID.TID 0000.0001) %MON seaice_vice_min              =   0.0000000000000E+00
(PID.TID 0000.0001) %MON seaice_vice_mean             =   0.0000000000000E+00
(PID.TID 0000.0001) %MON seaice_vice_sd               =   0.0000000000000E+00
(PID.TID 0000.0001) %MON seaice_vice_del2             =   0.0000000000000E+00
(PID.TID 0000.0001) %MON seaice_area_max              =   5.0920356630623E-02
(PID.TID 0000.0001) %MON seaice_area_min              =   5.0920356630623E-02
(PID.TID 0000.0001) %MON seaice_area_mean             =   5.0920356630623E-02
(PID.TID 0000.0001) %MON seaice_area_sd               =   0.0000000000000E+00
(PID.TID 0000.0001) %MON seaice_area_del2             =   0.0000000000000E+00
(PID.TID 0000.0001) %MON seaice_heff_max              =   8.4058523858075E-03
(PID.TID 0000.0001) %MON seaice_heff_min              =   8.4058523858075E-03
(PID.TID 0000.0001) %MON seaice_heff_mean             =   8.4058523858075E-03
(PID.TID 0000.0001) %MON seaice_heff_sd               =   0.0000000000000E+00
(PID.TID 0000.0001) %MON seaice_heff_del2             =   0.0000000000000E+00
(PID.TID 0000.0001) %MON seaice_hsnow_max             =   0.0000000000000E+00
(PID.TID 0000.0001) %MON seaice_hsnow_min             =   0.0000000000000E+00
(PID.TID 0000.0001) %MON seaice_hsnow_mean            =   0.0000000000000E+00
(PID.TID 0000.0001) %MON seaice_hsnow_sd              =   0.0000000000000E+00
(PID.TID 0000.0001) %MON seaice_hsnow_del2            =   0.0000000000000E+00
(PID.TID 0000.0001) %MON seaice_hsalt_max             =   6.6577158688473E+01
(PID.TID 0000.0001) %MON seaice_hsalt_min             =   6.6577158688473E+01
(PID.TID 0000.0001) %MON seaice_hsalt_mean            =   6.6577158688473E+01
(PID.TID 0000.0001) %MON seaice_hsalt_sd              =   0.0000000000000E+00
(PID.TID 0000.0001) %MON seaice_hsalt_del2            =   0.0000000000000E+00
(PID.TID 0000.0001) // =======================================================
(PID.TID 0000.0001) // End MONITOR SEAICE statistics
(PID.TID 0000.0001) // =======================================================
(PID.TID 0000.0001) %CHECKPOINT        10 ckptB
(PID.TID 0000.0001) 
(PID.TID 0000.0001)  cal_TimeStamp: iter =          0 time =  0.00000000E+00
(PID.TID 0000.0001)                 date =   19790101           0
(PID.TID 0000.0001) 
(PID.TID 0000.0001) INI_CG2D: CG2D normalisation factor =  1.9483302809492266E-03
(PID.TID 0000.0001) 
(PID.TID 0000.0001) Start initial hydrostatic pressure computation
(PID.TID 0000.0001) Pressure is predetermined for buoyancyRelation OCEANIC
(PID.TID 0000.0001) 
(PID.TID 0000.0001) // =======================================================
(PID.TID 0000.0001) // Model current state
(PID.TID 0000.0001) // =======================================================
(PID.TID 0000.0001) 
(PID.TID 0000.0001) // =======================================================
(PID.TID 0000.0001) // Begin MONITOR dynamic field statistics
(PID.TID 0000.0001) // =======================================================
(PID.TID 0000.0001) %MON time_tsnumber                =                     0
(PID.TID 0000.0001) %MON time_secondsf                =   0.0000000000000E+00
(PID.TID 0000.0001) %MON dynstat_eta_max              =   0.0000000000000E+00
(PID.TID 0000.0001) %MON dynstat_eta_min              =   0.0000000000000E+00
(PID.TID 0000.0001) %MON dynstat_eta_mean             =   0.0000000000000E+00
(PID.TID 0000.0001) %MON dynstat_eta_sd               =   0.0000000000000E+00
(PID.TID 0000.0001) %MON dynstat_eta_del2             =   0.0000000000000E+00
(PID.TID 0000.0001) %MON dynstat_uvel_max             =   0.0000000000000E+00
(PID.TID 0000.0001) %MON dynstat_uvel_min             =   0.0000000000000E+00
(PID.TID 0000.0001) %MON dynstat_uvel_mean            =   0.0000000000000E+00
(PID.TID 0000.0001) %MON dynstat_uvel_sd              =   0.0000000000000E+00
(PID.TID 0000.0001) %MON dynstat_uvel_del2            =   0.0000000000000E+00
(PID.TID 0000.0001) %MON dynstat_vvel_max             =   0.0000000000000E+00
(PID.TID 0000.0001) %MON dynstat_vvel_min             =   0.0000000000000E+00
(PID.TID 0000.0001) %MON dynstat_vvel_mean            =   0.0000000000000E+00
(PID.TID 0000.0001) %MON dynstat_vvel_sd              =   0.0000000000000E+00
(PID.TID 0000.0001) %MON dynstat_vvel_del2            =   0.0000000000000E+00
(PID.TID 0000.0001) %MON dynstat_wvel_max             =  -0.0000000000000E+00
(PID.TID 0000.0001) %MON dynstat_wvel_min             =  -0.0000000000000E+00
(PID.TID 0000.0001) %MON dynstat_wvel_mean            =   0.0000000000000E+00
(PID.TID 0000.0001) %MON dynstat_wvel_sd              =   0.0000000000000E+00
(PID.TID 0000.0001) %MON dynstat_wvel_del2            =   0.0000000000000E+00
(PID.TID 0000.0001) %MON dynstat_theta_max            =   5.0000000000000E-01
(PID.TID 0000.0001) %MON dynstat_theta_min            =  -1.9320000000000E+00
(PID.TID 0000.0001) %MON dynstat_theta_mean           =  -4.2392549390173E-01
(PID.TID 0000.0001) %MON dynstat_theta_sd             =   8.7853912215961E-01
(PID.TID 0000.0001) %MON dynstat_theta_del2           =   0.0000000000000E+00
(PID.TID 0000.0001) %MON dynstat_salt_max             =   3.4800000000000E+01
(PID.TID 0000.0001) %MON dynstat_salt_min             =   2.9007900000000E+01
(PID.TID 0000.0001) %MON dynstat_salt_mean            =   3.3593044460897E+01
(PID.TID 0000.0001) %MON dynstat_salt_sd              =   1.6851473101234E+00
(PID.TID 0000.0001) %MON dynstat_salt_del2            =   0.0000000000000E+00
(PID.TID 0000.0001) %MON dynstat_sst_max              =  -1.9299999000000E+00
(PID.TID 0000.0001) %MON dynstat_sst_min              =  -1.9299999000000E+00
(PID.TID 0000.0001) %MON dynstat_sst_mean             =  -1.9299999000000E+00
(PID.TID 0000.0001) %MON dynstat_sst_sd               =   2.2204460492503E-16
(PID.TID 0000.0001) %MON dynstat_sst_del2             =   0.0000000000000E+00
(PID.TID 0000.0001) %MON dynstat_sss_max              =   2.9007900000000E+01
(PID.TID 0000.0001) %MON dynstat_sss_min              =   2.9007900000000E+01
(PID.TID 0000.0001) %MON dynstat_sss_mean             =   2.9007900000000E+01
(PID.TID 0000.0001) %MON dynstat_sss_sd               =   0.0000000000000E+00
(PID.TID 0000.0001) %MON dynstat_sss_del2             =   0.0000000000000E+00
(PID.TID 0000.0001) %MON forcing_qnet_max             =   0.0000000000000E+00
(PID.TID 0000.0001) %MON forcing_qnet_min             =   0.0000000000000E+00
(PID.TID 0000.0001) %MON forcing_qnet_mean            =   0.0000000000000E+00
(PID.TID 0000.0001) %MON forcing_qnet_sd              =   0.0000000000000E+00
(PID.TID 0000.0001) %MON forcing_qnet_del2            =   0.0000000000000E+00
(PID.TID 0000.0001) %MON forcing_qsw_max              =   0.0000000000000E+00
(PID.TID 0000.0001) %MON forcing_qsw_min              =   0.0000000000000E+00
(PID.TID 0000.0001) %MON forcing_qsw_mean             =   0.0000000000000E+00
(PID.TID 0000.0001) %MON forcing_qsw_sd               =   0.0000000000000E+00
(PID.TID 0000.0001) %MON forcing_qsw_del2             =   0.0000000000000E+00
(PID.TID 0000.0001) %MON forcing_empmr_max            =   0.0000000000000E+00
(PID.TID 0000.0001) %MON forcing_empmr_min            =   0.0000000000000E+00
(PID.TID 0000.0001) %MON forcing_empmr_mean           =   0.0000000000000E+00
(PID.TID 0000.0001) %MON forcing_empmr_sd             =   0.0000000000000E+00
(PID.TID 0000.0001) %MON forcing_empmr_del2           =   0.0000000000000E+00
(PID.TID 0000.0001) %MON forcing_fu_max               =   0.0000000000000E+00
(PID.TID 0000.0001) %MON forcing_fu_min               =   0.0000000000000E+00
(PID.TID 0000.0001) %MON forcing_fu_mean              =   0.0000000000000E+00
(PID.TID 0000.0001) %MON forcing_fu_sd                =   0.0000000000000E+00
(PID.TID 0000.0001) %MON forcing_fu_del2              =   0.0000000000000E+00
(PID.TID 0000.0001) %MON forcing_fv_max               =   0.0000000000000E+00
(PID.TID 0000.0001) %MON forcing_fv_min               =   0.0000000000000E+00
(PID.TID 0000.0001) %MON forcing_fv_mean              =   0.0000000000000E+00
(PID.TID 0000.0001) %MON forcing_fv_sd                =   0.0000000000000E+00
(PID.TID 0000.0001) %MON forcing_fv_del2              =   0.0000000000000E+00
(PID.TID 0000.0001) %MON advcfl_uvel_max              =   0.0000000000000E+00
(PID.TID 0000.0001) %MON advcfl_vvel_max              =   0.0000000000000E+00
(PID.TID 0000.0001) %MON advcfl_wvel_max              =   0.0000000000000E+00
(PID.TID 0000.0001) %MON advcfl_W_hf_max              =   0.0000000000000E+00
(PID.TID 0000.0001) %MON pe_b_mean                    =   0.0000000000000E+00
(PID.TID 0000.0001) %MON ke_max                       =   0.0000000000000E+00
(PID.TID 0000.0001) %MON ke_mean                      =   0.0000000000000E+00
(PID.TID 0000.0001) %MON ke_vol                       =   1.2831500000000E+10
(PID.TID 0000.0001) %MON vort_r_min                   =   0.0000000000000E+00
(PID.TID 0000.0001) %MON vort_r_max                   =   0.0000000000000E+00
(PID.TID 0000.0001) %MON vort_a_mean                  =   1.0000000000000E-04
(PID.TID 0000.0001) %MON vort_a_sd                    =   0.0000000000000E+00
(PID.TID 0000.0001) %MON vort_p_mean                  =   1.0000000000000E-04
(PID.TID 0000.0001) %MON vort_p_sd                    =   0.0000000000000E+00
(PID.TID 0000.0001) %MON surfExpan_theta_mean         =   0.0000000000000E+00
(PID.TID 0000.0001) %MON surfExpan_salt_mean          =   0.0000000000000E+00
(PID.TID 0000.0001) // =======================================================
(PID.TID 0000.0001) // End MONITOR dynamic field statistics
(PID.TID 0000.0001) // =======================================================
(PID.TID 0000.0001) // =======================================================
(PID.TID 0000.0001) // Begin MONITOR SEAICE statistics
(PID.TID 0000.0001) // =======================================================
(PID.TID 0000.0001) %MON seaice_tsnumber              =                     0
(PID.TID 0000.0001) %MON seaice_time_sec              =   0.0000000000000E+00
(PID.TID 0000.0001) %MON seaice_uice_max              =   0.0000000000000E+00
(PID.TID 0000.0001) %MON seaice_uice_min              =   0.0000000000000E+00
(PID.TID 0000.0001) %MON seaice_uice_mean             =   0.0000000000000E+00
(PID.TID 0000.0001) %MON seaice_uice_sd               =   0.0000000000000E+00
(PID.TID 0000.0001) %MON seaice_uice_del2             =   0.0000000000000E+00
(PID.TID 0000.0001) %MON seaice_vice_max              =   0.0000000000000E+00
(PID.TID 0000.0001) %MON seaice_vice_min              =   0.0000000000000E+00
(PID.TID 0000.0001) %MON seaice_vice_mean             =   0.0000000000000E+00
(PID.TID 0000.0001) %MON seaice_vice_sd               =   0.0000000000000E+00
(PID.TID 0000.0001) %MON seaice_vice_del2             =   0.0000000000000E+00
(PID.TID 0000.0001) %MON seaice_area_max              =   0.0000000000000E+00
(PID.TID 0000.0001) %MON seaice_area_min              =   0.0000000000000E+00
(PID.TID 0000.0001) %MON seaice_area_mean             =   0.0000000000000E+00
(PID.TID 0000.0001) %MON seaice_area_sd               =   0.0000000000000E+00
(PID.TID 0000.0001) %MON seaice_area_del2             =   0.0000000000000E+00
(PID.TID 0000.0001) %MON seaice_heff_max              =   0.0000000000000E+00
(PID.TID 0000.0001) %MON seaice_heff_min              =   0.0000000000000E+00
(PID.TID 0000.0001) %MON seaice_heff_mean             =   0.0000000000000E+00
(PID.TID 0000.0001) %MON seaice_heff_sd               =   0.0000000000000E+00
(PID.TID 0000.0001) %MON seaice_heff_del2             =   0.0000000000000E+00
(PID.TID 0000.0001) %MON seaice_hsnow_max             =   0.0000000000000E+00
(PID.TID 0000.0001) %MON seaice_hsnow_min             =   0.0000000000000E+00
(PID.TID 0000.0001) %MON seaice_hsnow_mean            =   0.0000000000000E+00
(PID.TID 0000.0001) %MON seaice_hsnow_sd              =   0.0000000000000E+00
(PID.TID 0000.0001) %MON seaice_hsnow_del2            =   0.0000000000000E+00
(PID.TID 0000.0001) %MON seaice_hsalt_max             =   0.0000000000000E+00
(PID.TID 0000.0001) %MON seaice_hsalt_min             =   0.0000000000000E+00
(PID.TID 0000.0001) %MON seaice_hsalt_mean            =   0.0000000000000E+00
(PID.TID 0000.0001) %MON seaice_hsalt_sd              =   0.0000000000000E+00
(PID.TID 0000.0001) %MON seaice_hsalt_del2            =   0.0000000000000E+00
(PID.TID 0000.0001) // =======================================================
(PID.TID 0000.0001) // End MONITOR SEAICE statistics
(PID.TID 0000.0001) // =======================================================
(PID.TID 0000.0001) // =======================================================
(PID.TID 0000.0001) // Begin MONITOR EXF statistics
(PID.TID 0000.0001) // =======================================================
(PID.TID 0000.0001) %MON exf_tsnumber                 =                     0
(PID.TID 0000.0001) %MON exf_time_sec                 =   0.0000000000000E+00
(PID.TID 0000.0001) %MON exf_ustress_max              =   5.9520928516326E-03
(PID.TID 0000.0001) %MON exf_ustress_min              =   5.9520928516326E-03
(PID.TID 0000.0001) %MON exf_ustress_mean             =   5.9520928516326E-03
(PID.TID 0000.0001) %MON exf_ustress_sd               =   0.0000000000000E+00
(PID.TID 0000.0001) %MON exf_ustress_del2             =   0.0000000000000E+00
(PID.TID 0000.0001) %MON exf_vstress_max              =   5.9520928516326E-03
(PID.TID 0000.0001) %MON exf_vstress_min              =   5.9520928516326E-03
(PID.TID 0000.0001) %MON exf_vstress_mean             =   5.9520928516326E-03
(PID.TID 0000.0001) %MON exf_vstress_sd               =   0.0000000000000E+00
(PID.TID 0000.0001) %MON exf_vstress_del2             =   0.0000000000000E+00
(PID.TID 0000.0001) %MON exf_hflux_max                =   2.3771234275560E+02
(PID.TID 0000.0001) %MON exf_hflux_min                =   2.3771234275560E+02
(PID.TID 0000.0001) %MON exf_hflux_mean               =   2.3771234275560E+02
(PID.TID 0000.0001) %MON exf_hflux_sd                 =   0.0000000000000E+00
(PID.TID 0000.0001) %MON exf_hflux_del2               =   0.0000000000000E+00
(PID.TID 0000.0001) %MON exf_sflux_max                =   2.0657967698900E-08
(PID.TID 0000.0001) %MON exf_sflux_min                =   2.0657967698900E-08
(PID.TID 0000.0001) %MON exf_sflux_mean               =   2.0657967698900E-08
(PID.TID 0000.0001) %MON exf_sflux_sd                 =   0.0000000000000E+00
(PID.TID 0000.0001) %MON exf_sflux_del2               =   0.0000000000000E+00
(PID.TID 0000.0001) %MON exf_uwind_max                =   1.0000000000000E+00
(PID.TID 0000.0001) %MON exf_uwind_min                =   1.0000000000000E+00
(PID.TID 0000.0001) %MON exf_uwind_mean               =   1.0000000000000E+00
(PID.TID 0000.0001) %MON exf_uwind_sd                 =   0.0000000000000E+00
(PID.TID 0000.0001) %MON exf_uwind_del2               =   2.8284271247462E+00
(PID.TID 0000.0001) %MON exf_vwind_max                =   1.0000000000000E+00
(PID.TID 0000.0001) %MON exf_vwind_min                =   1.0000000000000E+00
(PID.TID 0000.0001) %MON exf_vwind_mean               =   1.0000000000000E+00
(PID.TID 0000.0001) %MON exf_vwind_sd                 =   0.0000000000000E+00
(PID.TID 0000.0001) %MON exf_vwind_del2               =   2.8284271247462E+00
(PID.TID 0000.0001) %MON exf_wspeed_max               =   1.4142135623731E+00
(PID.TID 0000.0001) %MON exf_wspeed_min               =   1.4142135623731E+00
(PID.TID 0000.0001) %MON exf_wspeed_mean              =   1.4142135623731E+00
(PID.TID 0000.0001) %MON exf_wspeed_sd                =   0.0000000000000E+00
(PID.TID 0000.0001) %MON exf_wspeed_del2              =   4.0000000000000E+00
(PID.TID 0000.0001) %MON exf_atemp_max                =   2.5300109100342E+02
(PID.TID 0000.0001) %MON exf_atemp_min                =   2.5300109100342E+02
(PID.TID 0000.0001) %MON exf_atemp_mean               =   2.5300109100342E+02
(PID.TID 0000.0001) %MON exf_atemp_sd                 =   0.0000000000000E+00
(PID.TID 0000.0001) %MON exf_atemp_del2               =   5.7018005011223E+01
(PID.TID 0000.0001) %MON exf_lwflux_max               =   1.0645410972207E+02
(PID.TID 0000.0001) %MON exf_lwflux_min               =   1.0645410972207E+02
(PID.TID 0000.0001) %MON exf_lwflux_mean              =   1.0645410972207E+02
(PID.TID 0000.0001) %MON exf_lwflux_sd                =   0.0000000000000E+00
(PID.TID 0000.0001) %MON exf_lwflux_del2              =   3.0109769147861E+02
(PID.TID 0000.0001) %MON exf_swflux_max               =  -1.9420749807358E+01
(PID.TID 0000.0001) %MON exf_swflux_min               =  -1.9420749807358E+01
(PID.TID 0000.0001) %MON exf_swflux_mean              =  -1.9420749807358E+01
(PID.TID 0000.0001) %MON exf_swflux_sd                =   0.0000000000000E+00
(PID.TID 0000.0001) %MON exf_swflux_del2              =   0.0000000000000E+00
(PID.TID 0000.0001) %MON exf_evap_max                 =   2.0657967698900E-08
(PID.TID 0000.0001) %MON exf_evap_min                 =   2.0657967698900E-08
(PID.TID 0000.0001) %MON exf_evap_mean                =   2.0657967698900E-08
(PID.TID 0000.0001) %MON exf_evap_sd                  =   0.0000000000000E+00
(PID.TID 0000.0001) %MON exf_evap_del2                =   5.8429556181700E-08
(PID.TID 0000.0001) %MON exf_swdown_max               =   2.1578610897064E+01
(PID.TID 0000.0001) %MON exf_swdown_min               =   2.1578610897064E+01
(PID.TID 0000.0001) %MON exf_swdown_mean              =   2.1578610897064E+01
(PID.TID 0000.0001) %MON exf_swdown_sd                =   0.0000000000000E+00
(PID.TID 0000.0001) %MON exf_swdown_del2              =   6.1033528375600E+01
(PID.TID 0000.0001) %MON exf_lwdown_max               =   1.9115727233887E+02
(PID.TID 0000.0001) %MON exf_lwdown_min               =   1.9115727233887E+02
(PID.TID 0000.0001) %MON exf_lwdown_mean              =   1.9115727233887E+02
(PID.TID 0000.0001) %MON exf_lwdown_sd                =   0.0000000000000E+00
(PID.TID 0000.0001) %MON exf_lwdown_del2              =   5.4067441417575E+02
(PID.TID 0000.0001) // =======================================================
(PID.TID 0000.0001) // End MONITOR EXF statistics
(PID.TID 0000.0001) // =======================================================
 ph-ice B            0  -1.9299998999999999       3.19161626135042609E-003  1.59580813067521305E-003
 ph-ice C            0   7978.8190195144125     
(PID.TID 0000.0001) SOLVE_FOR_PRESSURE: putPmEinXvector =    F
 cg2d: Sum(rhs),rhsMax =   1.00000000000000E+00  5.58643959870524E-06
(PID.TID 0000.0001)      cg2d_init_res =   1.00000000000000E+00
(PID.TID 0000.0001)      cg2d_iters(min,last) =      -1       1
(PID.TID 0000.0001)      cg2d_last_res =   0.00000000000000E+00
(PID.TID 0000.0001) // =======================================================
(PID.TID 0000.0001) // Begin MONITOR dynamic field statistics
(PID.TID 0000.0001) // =======================================================
(PID.TID 0000.0001) %MON time_tsnumber                =                     1
(PID.TID 0000.0001) %MON time_secondsf                =   3.6000000000000E+03
(PID.TID 0000.0001) %MON dynstat_eta_max              =  -1.4864062404042E-03
(PID.TID 0000.0001) %MON dynstat_eta_min              =  -1.4864062404042E-03
(PID.TID 0000.0001) %MON dynstat_eta_mean             =  -1.4864062404042E-03
(PID.TID 0000.0001) %MON dynstat_eta_sd               =   0.0000000000000E+00
(PID.TID 0000.0001) %MON dynstat_eta_del2             =   0.0000000000000E+00
(PID.TID 0000.0001) %MON dynstat_uvel_max             =   1.4545639861973E-03
(PID.TID 0000.0001) %MON dynstat_uvel_min             =   1.6617290517751E-71
(PID.TID 0000.0001) %MON dynstat_uvel_mean            =   4.0650354290444E-05
(PID.TID 0000.0001) %MON dynstat_uvel_sd              =   2.1109641915171E-04
(PID.TID 0000.0001) %MON dynstat_uvel_del2            =   0.0000000000000E+00
(PID.TID 0000.0001) %MON dynstat_vvel_max             =   1.4545639861973E-03
(PID.TID 0000.0001) %MON dynstat_vvel_min             =   1.6617290517751E-71
(PID.TID 0000.0001) %MON dynstat_vvel_mean            =   4.0650354290444E-05
(PID.TID 0000.0001) %MON dynstat_vvel_sd              =   2.1109641915171E-04
(PID.TID 0000.0001) %MON dynstat_vvel_del2            =   0.0000000000000E+00
(PID.TID 0000.0001) %MON dynstat_wvel_max             =  -0.0000000000000E+00
(PID.TID 0000.0001) %MON dynstat_wvel_min             =  -0.0000000000000E+00
(PID.TID 0000.0001) %MON dynstat_wvel_mean            =   0.0000000000000E+00
(PID.TID 0000.0001) %MON dynstat_wvel_sd              =   0.0000000000000E+00
(PID.TID 0000.0001) %MON dynstat_wvel_del2            =   0.0000000000000E+00
(PID.TID 0000.0001) %MON dynstat_theta_max            =   4.9999999999901E-01
(PID.TID 0000.0001) %MON dynstat_theta_min            =  -1.9277413953425E+00
(PID.TID 0000.0001) %MON dynstat_theta_mean           =  -4.2410194235577E-01
(PID.TID 0000.0001) %MON dynstat_theta_sd             =   8.7835103831778E-01
(PID.TID 0000.0001) %MON dynstat_theta_del2           =   0.0000000000000E+00
(PID.TID 0000.0001) %MON dynstat_salt_max             =   3.4800000000000E+01
(PID.TID 0000.0001) %MON dynstat_salt_min             =   2.9009178177409E+01
(PID.TID 0000.0001) %MON dynstat_salt_mean            =   3.3593104493453E+01
(PID.TID 0000.0001) %MON dynstat_salt_sd              =   1.6849810431014E+00
(PID.TID 0000.0001) %MON dynstat_salt_del2            =   0.0000000000000E+00
(PID.TID 0000.0001) %MON dynstat_sst_max              =  -1.9277413953425E+00
(PID.TID 0000.0001) %MON dynstat_sst_min              =  -1.9277413953425E+00
(PID.TID 0000.0001) %MON dynstat_sst_mean             =  -1.9277413953425E+00
(PID.TID 0000.0001) %MON dynstat_sst_sd               =   0.0000000000000E+00
(PID.TID 0000.0001) %MON dynstat_sst_del2             =   0.0000000000000E+00
(PID.TID 0000.0001) %MON dynstat_sss_max              =   2.9009178177409E+01
(PID.TID 0000.0001) %MON dynstat_sss_min              =   2.9009178177409E+01
(PID.TID 0000.0001) %MON dynstat_sss_mean             =   2.9009178177409E+01
(PID.TID 0000.0001) %MON dynstat_sss_sd               =   0.0000000000000E+00
(PID.TID 0000.0001) %MON dynstat_sss_del2             =   0.0000000000000E+00
(PID.TID 0000.0001) %MON forcing_qnet_max             =   1.0298180852298E+02
(PID.TID 0000.0001) %MON forcing_qnet_min             =   1.0298180852298E+02
(PID.TID 0000.0001) %MON forcing_qnet_mean            =   1.0298180852298E+02
(PID.TID 0000.0001) %MON forcing_qnet_sd              =   0.0000000000000E+00
(PID.TID 0000.0001) %MON forcing_qnet_del2            =   0.0000000000000E+00
(PID.TID 0000.0001) %MON forcing_qsw_max              =  -1.9420749807358E+01
(PID.TID 0000.0001) %MON forcing_qsw_min              =  -1.9420749807358E+01
(PID.TID 0000.0001) %MON forcing_qsw_mean             =  -1.9420749807358E+01
(PID.TID 0000.0001) %MON forcing_qsw_sd               =   0.0000000000000E+00
(PID.TID 0000.0001) %MON forcing_qsw_del2             =   0.0000000000000E+00
(PID.TID 0000.0001) %MON forcing_empmr_max            =   4.2403866913715E-04
(PID.TID 0000.0001) %MON forcing_empmr_min            =   4.2403866913715E-04
(PID.TID 0000.0001) %MON forcing_empmr_mean           =   4.2403866913715E-04
(PID.TID 0000.0001) %MON forcing_empmr_sd             =   0.0000000000000E+00
(PID.TID 0000.0001) %MON forcing_empmr_del2           =   0.0000000000000E+00
(PID.TID 0000.0001) %MON forcing_fu_max               =   5.9520928516326E-03
(PID.TID 0000.0001) %MON forcing_fu_min               =   5.9520928516326E-03
(PID.TID 0000.0001) %MON forcing_fu_mean              =   5.9520928516326E-03
(PID.TID 0000.0001) %MON forcing_fu_sd                =   0.0000000000000E+00
(PID.TID 0000.0001) %MON forcing_fu_del2              =   0.0000000000000E+00
(PID.TID 0000.0001) %MON forcing_fv_max               =   5.9520928516326E-03
(PID.TID 0000.0001) %MON forcing_fv_min               =   5.9520928516326E-03
(PID.TID 0000.0001) %MON forcing_fv_mean              =   5.9520928516326E-03
(PID.TID 0000.0001) %MON forcing_fv_sd                =   0.0000000000000E+00
(PID.TID 0000.0001) %MON forcing_fv_del2              =   0.0000000000000E+00
(PID.TID 0000.0001) %MON advcfl_uvel_max              =   1.0472860700620E-03
(PID.TID 0000.0001) %MON advcfl_vvel_max              =   1.0472860700620E-03
(PID.TID 0000.0001) %MON advcfl_wvel_max              =   0.0000000000000E+00
(PID.TID 0000.0001) %MON advcfl_W_hf_max              =   0.0000000000000E+00
(PID.TID 0000.0001) %MON pe_b_mean                    =  -1.9068329610826E-08
(PID.TID 0000.0001) %MON ke_max                       =   2.1157563899421E-06
(PID.TID 0000.0001) %MON ke_mean                      =   4.6214149482614E-08
(PID.TID 0000.0001) %MON ke_vol                       =   1.2831500000000E+10
(PID.TID 0000.0001) %MON vort_r_min                   =   0.0000000000000E+00
(PID.TID 0000.0001) %MON vort_r_max                   =   0.0000000000000E+00
(PID.TID 0000.0001) %MON vort_a_mean                  =   1.0000000000000E-04
(PID.TID 0000.0001) %MON vort_a_sd                    =   0.0000000000000E+00
(PID.TID 0000.0001) %MON vort_p_mean                  =   1.0000000000000E-04
(PID.TID 0000.0001) %MON vort_p_sd                    =   0.0000000000000E+00
(PID.TID 0000.0001) %MON surfExpan_theta_mean         =   0.0000000000000E+00
(PID.TID 0000.0001) %MON surfExpan_salt_mean          =   0.0000000000000E+00
(PID.TID 0000.0001) // =======================================================
(PID.TID 0000.0001) // End MONITOR dynamic field statistics
(PID.TID 0000.0001) // =======================================================
(PID.TID 0000.0001) // =======================================================
(PID.TID 0000.0001) // Begin MONITOR SEAICE statistics
(PID.TID 0000.0001) // =======================================================
(PID.TID 0000.0001) %MON seaice_tsnumber              =                     1
(PID.TID 0000.0001) %MON seaice_time_sec              =   3.6000000000000E+03
(PID.TID 0000.0001) %MON seaice_uice_max              =   0.0000000000000E+00
(PID.TID 0000.0001) %MON seaice_uice_min              =   0.0000000000000E+00
(PID.TID 0000.0001) %MON seaice_uice_mean             =   0.0000000000000E+00
(PID.TID 0000.0001) %MON seaice_uice_sd               =   0.0000000000000E+00
(PID.TID 0000.0001) %MON seaice_uice_del2             =   0.0000000000000E+00
(PID.TID 0000.0001) %MON seaice_vice_max              =   0.0000000000000E+00
(PID.TID 0000.0001) %MON seaice_vice_min              =   0.0000000000000E+00
(PID.TID 0000.0001) %MON seaice_vice_mean             =   0.0000000000000E+00
(PID.TID 0000.0001) %MON seaice_vice_sd               =   0.0000000000000E+00
(PID.TID 0000.0001) %MON seaice_vice_del2             =   0.0000000000000E+00
(PID.TID 0000.0001) %MON seaice_area_max              =   3.1916162613504E-03
(PID.TID 0000.0001) %MON seaice_area_min              =   3.1916162613504E-03
(PID.TID 0000.0001) %MON seaice_area_mean             =   3.1916162613504E-03
(PID.TID 0000.0001) %MON seaice_area_sd               =   0.0000000000000E+00
(PID.TID 0000.0001) %MON seaice_area_del2             =   0.0000000000000E+00
(PID.TID 0000.0001) %MON seaice_heff_max              =   1.5958081306752E-03
(PID.TID 0000.0001) %MON seaice_heff_min              =   1.5958081306752E-03
(PID.TID 0000.0001) %MON seaice_heff_mean             =   1.5958081306752E-03
(PID.TID 0000.0001) %MON seaice_heff_sd               =   0.0000000000000E+00
(PID.TID 0000.0001) %MON seaice_heff_del2             =   0.0000000000000E+00
(PID.TID 0000.0001) %MON seaice_hsnow_max             =   0.0000000000000E+00
(PID.TID 0000.0001) %MON seaice_hsnow_min             =   0.0000000000000E+00
(PID.TID 0000.0001) %MON seaice_hsnow_mean            =   0.0000000000000E+00
(PID.TID 0000.0001) %MON seaice_hsnow_sd              =   0.0000000000000E+00
(PID.TID 0000.0001) %MON seaice_hsnow_del2            =   0.0000000000000E+00
(PID.TID 0000.0001) %MON seaice_hsalt_max             =   1.2637454649951E+01
(PID.TID 0000.0001) %MON seaice_hsalt_min             =   1.2637454649951E+01
(PID.TID 0000.0001) %MON seaice_hsalt_mean            =   1.2637454649951E+01
(PID.TID 0000.0001) %MON seaice_hsalt_sd              =   0.0000000000000E+00
(PID.TID 0000.0001) %MON seaice_hsalt_del2            =   0.0000000000000E+00
(PID.TID 0000.0001) // =======================================================
(PID.TID 0000.0001) // End MONITOR SEAICE statistics
(PID.TID 0000.0001) // =======================================================
(PID.TID 0000.0001) // =======================================================
(PID.TID 0000.0001) // Begin MONITOR EXF statistics
(PID.TID 0000.0001) // =======================================================
(PID.TID 0000.0001) %MON exf_tsnumber                 =                     1
(PID.TID 0000.0001) %MON exf_time_sec                 =   3.6000000000000E+03
(PID.TID 0000.0001) %MON exf_ustress_max              =   5.9519873761693E-03
(PID.TID 0000.0001) %MON exf_ustress_min              =   5.9519873761693E-03
(PID.TID 0000.0001) %MON exf_ustress_mean             =   5.9519873761693E-03
(PID.TID 0000.0001) %MON exf_ustress_sd               =   0.0000000000000E+00
(PID.TID 0000.0001) %MON exf_ustress_del2             =   0.0000000000000E+00
(PID.TID 0000.0001) %MON exf_vstress_max              =   5.9519873761693E-03
(PID.TID 0000.0001) %MON exf_vstress_min              =   5.9519873761693E-03
(PID.TID 0000.0001) %MON exf_vstress_mean             =   5.9519873761693E-03
(PID.TID 0000.0001) %MON exf_vstress_sd               =   0.0000000000000E+00
(PID.TID 0000.0001) %MON exf_vstress_del2             =   0.0000000000000E+00
(PID.TID 0000.0001) %MON exf_hflux_max                =   2.3765058029643E+02
(PID.TID 0000.0001) %MON exf_hflux_min                =   2.3765058029643E+02
(PID.TID 0000.0001) %MON exf_hflux_mean               =   2.3765058029643E+02
(PID.TID 0000.0001) %MON exf_hflux_sd                 =   0.0000000000000E+00
(PID.TID 0000.0001) %MON exf_hflux_del2               =   0.0000000000000E+00
(PID.TID 0000.0001) %MON exf_sflux_max                =   2.0660668670171E-08
(PID.TID 0000.0001) %MON exf_sflux_min                =   2.0660668670171E-08
(PID.TID 0000.0001) %MON exf_sflux_mean               =   2.0660668670171E-08
(PID.TID 0000.0001) %MON exf_sflux_sd                 =   0.0000000000000E+00
(PID.TID 0000.0001) %MON exf_sflux_del2               =   0.0000000000000E+00
(PID.TID 0000.0001) %MON exf_uwind_max                =   1.0000000000000E+00
(PID.TID 0000.0001) %MON exf_uwind_min                =   1.0000000000000E+00
(PID.TID 0000.0001) %MON exf_uwind_mean               =   1.0000000000000E+00
(PID.TID 0000.0001) %MON exf_uwind_sd                 =   0.0000000000000E+00
(PID.TID 0000.0001) %MON exf_uwind_del2               =   0.0000000000000E+00
(PID.TID 0000.0001) %MON exf_vwind_max                =   1.0000000000000E+00
(PID.TID 0000.0001) %MON exf_vwind_min                =   1.0000000000000E+00
(PID.TID 0000.0001) %MON exf_vwind_mean               =   1.0000000000000E+00
(PID.TID 0000.0001) %MON exf_vwind_sd                 =   0.0000000000000E+00
(PID.TID 0000.0001) %MON exf_vwind_del2               =   0.0000000000000E+00
(PID.TID 0000.0001) %MON exf_wspeed_max               =   1.4142135623731E+00
(PID.TID 0000.0001) %MON exf_wspeed_min               =   1.4142135623731E+00
(PID.TID 0000.0001) %MON exf_wspeed_mean              =   1.4142135623731E+00
(PID.TID 0000.0001) %MON exf_wspeed_sd                =   0.0000000000000E+00
(PID.TID 0000.0001) %MON exf_wspeed_del2              =   4.0000000000000E+00
(PID.TID 0000.0001) %MON exf_atemp_max                =   2.5300548934937E+02
(PID.TID 0000.0001) %MON exf_atemp_min                =   2.5300548934937E+02
(PID.TID 0000.0001) %MON exf_atemp_mean               =   2.5300548934937E+02
(PID.TID 0000.0001) %MON exf_atemp_sd                 =   0.0000000000000E+00
(PID.TID 0000.0001) %MON exf_atemp_del2               =   5.7005564610241E+01
(PID.TID 0000.0001) %MON exf_lwflux_max               =   1.0643446411281E+02
(PID.TID 0000.0001) %MON exf_lwflux_min               =   1.0643446411281E+02
(PID.TID 0000.0001) %MON exf_lwflux_mean              =   1.0643446411281E+02
(PID.TID 0000.0001) %MON exf_lwflux_sd                =   0.0000000000000E+00
(PID.TID 0000.0001) %MON exf_lwflux_del2              =   3.0104212530451E+02
(PID.TID 0000.0001) %MON exf_swflux_max               =  -1.9455544352531E+01
(PID.TID 0000.0001) %MON exf_swflux_min               =  -1.9455544352531E+01
(PID.TID 0000.0001) %MON exf_swflux_mean              =  -1.9455544352531E+01
(PID.TID 0000.0001) %MON exf_swflux_sd                =   0.0000000000000E+00
(PID.TID 0000.0001) %MON exf_swflux_del2              =   0.0000000000000E+00
(PID.TID 0000.0001) %MON exf_evap_max                 =   2.0660668670171E-08
(PID.TID 0000.0001) %MON exf_evap_min                 =   2.0660668670171E-08
(PID.TID 0000.0001) %MON exf_evap_mean                =   2.0660668670171E-08
(PID.TID 0000.0001) %MON exf_evap_sd                  =   0.0000000000000E+00
(PID.TID 0000.0001) %MON exf_evap_del2                =   5.8437195682105E-08
(PID.TID 0000.0001) %MON exf_swdown_max               =   2.1617271502813E+01
(PID.TID 0000.0001) %MON exf_swdown_min               =   2.1617271502813E+01
(PID.TID 0000.0001) %MON exf_swdown_mean              =   2.1617271502813E+01
(PID.TID 0000.0001) %MON exf_swdown_sd                =   0.0000000000000E+00
(PID.TID 0000.0001) %MON exf_swdown_del2              =   6.1142877081558E+01
(PID.TID 0000.0001) %MON exf_lwdown_max               =   1.9118683115641E+02
(PID.TID 0000.0001) %MON exf_lwdown_min               =   1.9118683115641E+02
(PID.TID 0000.0001) %MON exf_lwdown_mean              =   1.9118683115641E+02
(PID.TID 0000.0001) %MON exf_lwdown_sd                =   0.0000000000000E+00
(PID.TID 0000.0001) %MON exf_lwdown_del2              =   5.4075801913707E+02
(PID.TID 0000.0001) // =======================================================
(PID.TID 0000.0001) // End MONITOR EXF statistics
(PID.TID 0000.0001) // =======================================================
 ph-ice B            1  -1.9277413953424842       8.88743809632741404E-003  3.09503701610683215E-003
 ph-ice C            1   30196.797094275316     
 cg2d: Sum(rhs),rhsMax =   1.00000000000000E+00  1.08504193337708E-05
(PID.TID 0000.0001)      cg2d_init_res =   4.85140672736634E-01
(PID.TID 0000.0001)      cg2d_iters(min,last) =      -1       1
(PID.TID 0000.0001)      cg2d_last_res =   0.00000000000000E+00
(PID.TID 0000.0001) // =======================================================
(PID.TID 0000.0001) // Begin MONITOR dynamic field statistics
(PID.TID 0000.0001) // =======================================================
(PID.TID 0000.0001) %MON time_tsnumber                =                     2
(PID.TID 0000.0001) %MON time_secondsf                =   7.2000000000000E+03
(PID.TID 0000.0001) %MON dynstat_eta_max              =  -2.8870143002081E-03
(PID.TID 0000.0001) %MON dynstat_eta_min              =  -2.8870143002081E-03
(PID.TID 0000.0001) %MON dynstat_eta_mean             =  -2.8870143002081E-03
(PID.TID 0000.0001) %MON dynstat_eta_sd               =   0.0000000000000E+00
(PID.TID 0000.0001) %MON dynstat_eta_del2             =   0.0000000000000E+00
(PID.TID 0000.0001) %MON dynstat_uvel_max             =   3.2471474876744E-03
(PID.TID 0000.0001) %MON dynstat_uvel_min             =   3.9578559854537E-71
(PID.TID 0000.0001) %MON dynstat_uvel_mean            =   1.0450657923320E-04
(PID.TID 0000.0001) %MON dynstat_uvel_sd              =   4.9531861707480E-04
(PID.TID 0000.0001) %MON dynstat_uvel_del2            =   0.0000000000000E+00
(PID.TID 0000.0001) %MON dynstat_vvel_max             =   1.9346953058886E-03
(PID.TID 0000.0001) %MON dynstat_vvel_min             =   1.0605533911388E-71
(PID.TID 0000.0001) %MON dynstat_vvel_mean            =   5.7677371090605E-05
(PID.TID 0000.0001) %MON dynstat_vvel_sd              =   2.8645048149967E-04
(PID.TID 0000.0001) %MON dynstat_vvel_del2            =   0.0000000000000E+00
(PID.TID 0000.0001) %MON dynstat_wvel_max             =  -0.0000000000000E+00
(PID.TID 0000.0001) %MON dynstat_wvel_min             =  -0.0000000000000E+00
(PID.TID 0000.0001) %MON dynstat_wvel_mean            =   0.0000000000000E+00
(PID.TID 0000.0001) %MON dynstat_wvel_sd              =   0.0000000000000E+00
(PID.TID 0000.0001) %MON dynstat_wvel_del2            =   0.0000000000000E+00
(PID.TID 0000.0001) %MON dynstat_theta_max            =   4.9999999999854E-01
(PID.TID 0000.0001) %MON dynstat_theta_min            =  -1.9227439937105E+00
(PID.TID 0000.0001) %MON dynstat_theta_mean           =  -4.2429167088469E-01
(PID.TID 0000.0001) %MON dynstat_theta_sd             =   8.7824081768905E-01
(PID.TID 0000.0001) %MON dynstat_theta_del2           =   0.0000000000000E+00
(PID.TID 0000.0001) %MON dynstat_salt_max             =   3.4800000000000E+01
(PID.TID 0000.0001) %MON dynstat_salt_min             =   2.9010853078349E+01
(PID.TID 0000.0001) %MON dynstat_salt_mean            =   3.3593161130409E+01
(PID.TID 0000.0001) %MON dynstat_salt_sd              =   1.6848244712725E+00
(PID.TID 0000.0001) %MON dynstat_salt_del2            =   0.0000000000000E+00
(PID.TID 0000.0001) %MON dynstat_sst_max              =  -1.9227439937105E+00
(PID.TID 0000.0001) %MON dynstat_sst_min              =  -1.9227439937105E+00
(PID.TID 0000.0001) %MON dynstat_sst_mean             =  -1.9227439937105E+00
(PID.TID 0000.0001) %MON dynstat_sst_sd               =   0.0000000000000E+00
(PID.TID 0000.0001) %MON dynstat_sst_del2             =   0.0000000000000E+00
(PID.TID 0000.0001) %MON dynstat_sss_max              =   2.9010853078349E+01
(PID.TID 0000.0001) %MON dynstat_sss_min              =   2.9010853078349E+01
(PID.TID 0000.0001) %MON dynstat_sss_mean             =   2.9010853078349E+01
(PID.TID 0000.0001) %MON dynstat_sss_sd               =   0.0000000000000E+00
(PID.TID 0000.0001) %MON dynstat_sss_del2             =   0.0000000000000E+00
(PID.TID 0000.0001) %MON forcing_qnet_max             =   1.1073254873089E+02
(PID.TID 0000.0001) %MON forcing_qnet_min             =   1.1073254873089E+02
(PID.TID 0000.0001) %MON forcing_qnet_mean            =   1.1073254873089E+02
(PID.TID 0000.0001) %MON forcing_qnet_sd              =   0.0000000000000E+00
(PID.TID 0000.0001) %MON forcing_qnet_del2            =   0.0000000000000E+00
(PID.TID 0000.0001) %MON forcing_qsw_max              =  -1.9399501737120E+01
(PID.TID 0000.0001) %MON forcing_qsw_min              =  -1.9399501737120E+01
(PID.TID 0000.0001) %MON forcing_qsw_mean             =  -1.9399501737120E+01
(PID.TID 0000.0001) %MON forcing_qsw_sd               =   0.0000000000000E+00
(PID.TID 0000.0001) %MON forcing_qsw_del2             =   0.0000000000000E+00
(PID.TID 0000.0001) %MON forcing_empmr_max            =   3.9956235483818E-04
(PID.TID 0000.0001) %MON forcing_empmr_min            =   3.9956235483818E-04
(PID.TID 0000.0001) %MON forcing_empmr_mean           =   3.9956235483818E-04
(PID.TID 0000.0001) %MON forcing_empmr_sd             =   0.0000000000000E+00
(PID.TID 0000.0001) %MON forcing_empmr_del2           =   0.0000000000000E+00
(PID.TID 0000.0001) %MON forcing_fu_max               =   5.9329909164721E-03
(PID.TID 0000.0001) %MON forcing_fu_min               =   5.9329909164721E-03
(PID.TID 0000.0001) %MON forcing_fu_mean              =   5.9329909164721E-03
(PID.TID 0000.0001) %MON forcing_fu_sd                =   0.0000000000000E+00
(PID.TID 0000.0001) %MON forcing_fu_del2              =   0.0000000000000E+00
(PID.TID 0000.0001) %MON forcing_fv_max               =   5.9329909164721E-03
(PID.TID 0000.0001) %MON forcing_fv_min               =   5.9329909164721E-03
(PID.TID 0000.0001) %MON forcing_fv_mean              =   5.9329909164721E-03
(PID.TID 0000.0001) %MON forcing_fv_sd                =   0.0000000000000E+00
(PID.TID 0000.0001) %MON forcing_fv_del2              =   0.0000000000000E+00
(PID.TID 0000.0001) %MON advcfl_uvel_max              =   2.3379461911256E-03
(PID.TID 0000.0001) %MON advcfl_vvel_max              =   1.3929806202398E-03
(PID.TID 0000.0001) %MON advcfl_wvel_max              =   0.0000000000000E+00
(PID.TID 0000.0001) %MON advcfl_W_hf_max              =   0.0000000000000E+00
(PID.TID 0000.0001) %MON pe_b_mean                    =  -7.1715718343116E-08
(PID.TID 0000.0001) %MON ke_max                       =   7.1435063666690E-06
(PID.TID 0000.0001) %MON ke_mean                      =   1.7082135750561E-07
(PID.TID 0000.0001) %MON ke_vol                       =   1.2831500000000E+10
(PID.TID 0000.0001) %MON vort_r_min                   =   0.0000000000000E+00
(PID.TID 0000.0001) %MON vort_r_max                   =   0.0000000000000E+00
(PID.TID 0000.0001) %MON vort_a_mean                  =   1.0000000000000E-04
(PID.TID 0000.0001) %MON vort_a_sd                    =   0.0000000000000E+00
(PID.TID 0000.0001) %MON vort_p_mean                  =   1.0000000000000E-04
(PID.TID 0000.0001) %MON vort_p_sd                    =   0.0000000000000E+00
(PID.TID 0000.0001) %MON surfExpan_theta_mean         =   0.0000000000000E+00
(PID.TID 0000.0001) %MON surfExpan_salt_mean          =   0.0000000000000E+00
(PID.TID 0000.0001) // =======================================================
(PID.TID 0000.0001) // End MONITOR dynamic field statistics
(PID.TID 0000.0001) // =======================================================
(PID.TID 0000.0001) // =======================================================
(PID.TID 0000.0001) // Begin MONITOR SEAICE statistics
(PID.TID 0000.0001) // =======================================================
(PID.TID 0000.0001) %MON seaice_tsnumber              =                     2
(PID.TID 0000.0001) %MON seaice_time_sec              =   7.2000000000000E+03
(PID.TID 0000.0001) %MON seaice_uice_max              =   0.0000000000000E+00
(PID.TID 0000.0001) %MON seaice_uice_min              =   0.0000000000000E+00
(PID.TID 0000.0001) %MON seaice_uice_mean             =   0.0000000000000E+00
(PID.TID 0000.0001) %MON seaice_uice_sd               =   0.0000000000000E+00
(PID.TID 0000.0001) %MON seaice_uice_del2             =   0.0000000000000E+00
(PID.TID 0000.0001) %MON seaice_vice_max              =   0.0000000000000E+00
(PID.TID 0000.0001) %MON seaice_vice_min              =   0.0000000000000E+00
(PID.TID 0000.0001) %MON seaice_vice_mean             =   0.0000000000000E+00
(PID.TID 0000.0001) %MON seaice_vice_sd               =   0.0000000000000E+00
(PID.TID 0000.0001) %MON seaice_vice_del2             =   0.0000000000000E+00
(PID.TID 0000.0001) %MON seaice_area_max              =   8.8874380963274E-03
(PID.TID 0000.0001) %MON seaice_area_min              =   8.8874380963274E-03
(PID.TID 0000.0001) %MON seaice_area_mean             =   8.8874380963274E-03
(PID.TID 0000.0001) %MON seaice_area_sd               =   0.0000000000000E+00
(PID.TID 0000.0001) %MON seaice_area_del2             =   0.0000000000000E+00
(PID.TID 0000.0001) %MON seaice_heff_max              =   3.0950370161068E-03
(PID.TID 0000.0001) %MON seaice_heff_min              =   3.0950370161068E-03
(PID.TID 0000.0001) %MON seaice_heff_mean             =   3.0950370161068E-03
(PID.TID 0000.0001) %MON seaice_heff_sd               =   0.0000000000000E+00
(PID.TID 0000.0001) %MON seaice_heff_del2             =   0.0000000000000E+00
(PID.TID 0000.0001) %MON seaice_hsnow_max             =   0.0000000000000E+00
(PID.TID 0000.0001) %MON seaice_hsnow_min             =   0.0000000000000E+00
(PID.TID 0000.0001) %MON seaice_hsnow_mean            =   0.0000000000000E+00
(PID.TID 0000.0001) %MON seaice_hsnow_sd              =   0.0000000000000E+00
(PID.TID 0000.0001) %MON seaice_hsnow_del2            =   0.0000000000000E+00
(PID.TID 0000.0001) %MON seaice_hsalt_max             =   2.4510606267425E+01
(PID.TID 0000.0001) %MON seaice_hsalt_min             =   2.4510606267425E+01
(PID.TID 0000.0001) %MON seaice_hsalt_mean            =   2.4510606267425E+01
(PID.TID 0000.0001) %MON seaice_hsalt_sd              =   0.0000000000000E+00
(PID.TID 0000.0001) %MON seaice_hsalt_del2            =   0.0000000000000E+00
(PID.TID 0000.0001) // =======================================================
(PID.TID 0000.0001) // End MONITOR SEAICE statistics
(PID.TID 0000.0001) // =======================================================
(PID.TID 0000.0001) // =======================================================
(PID.TID 0000.0001) // Begin MONITOR EXF statistics
(PID.TID 0000.0001) // =======================================================
(PID.TID 0000.0001) %MON exf_tsnumber                 =                     2
(PID.TID 0000.0001) %MON exf_time_sec                 =   7.2000000000000E+03
(PID.TID 0000.0001) %MON exf_ustress_max              =   5.9520089583078E-03
(PID.TID 0000.0001) %MON exf_ustress_min              =   5.9520089583078E-03
(PID.TID 0000.0001) %MON exf_ustress_mean             =   5.9520089583078E-03
(PID.TID 0000.0001) %MON exf_ustress_sd               =   0.0000000000000E+00
(PID.TID 0000.0001) %MON exf_ustress_del2             =   0.0000000000000E+00
(PID.TID 0000.0001) %MON exf_vstress_max              =   5.9520089583078E-03
(PID.TID 0000.0001) %MON exf_vstress_min              =   5.9520089583078E-03
(PID.TID 0000.0001) %MON exf_vstress_mean             =   5.9520089583078E-03
(PID.TID 0000.0001) %MON exf_vstress_sd               =   0.0000000000000E+00
(PID.TID 0000.0001) %MON exf_vstress_del2             =   0.0000000000000E+00
(PID.TID 0000.0001) %MON exf_hflux_max                =   2.3763011749493E+02
(PID.TID 0000.0001) %MON exf_hflux_min                =   2.3763011749493E+02
(PID.TID 0000.0001) %MON exf_hflux_mean               =   2.3763011749493E+02
(PID.TID 0000.0001) %MON exf_hflux_sd                 =   0.0000000000000E+00
(PID.TID 0000.0001) %MON exf_hflux_del2               =   0.0000000000000E+00
(PID.TID 0000.0001) %MON exf_sflux_max                =   2.0667948890064E-08
(PID.TID 0000.0001) %MON exf_sflux_min                =   2.0667948890064E-08
(PID.TID 0000.0001) %MON exf_sflux_mean               =   2.0667948890064E-08
(PID.TID 0000.0001) %MON exf_sflux_sd                 =   0.0000000000000E+00
(PID.TID 0000.0001) %MON exf_sflux_del2               =   0.0000000000000E+00
(PID.TID 0000.0001) %MON exf_uwind_max                =   1.0000000000000E+00
(PID.TID 0000.0001) %MON exf_uwind_min                =   1.0000000000000E+00
(PID.TID 0000.0001) %MON exf_uwind_mean               =   1.0000000000000E+00
(PID.TID 0000.0001) %MON exf_uwind_sd                 =   0.0000000000000E+00
(PID.TID 0000.0001) %MON exf_uwind_del2               =   0.0000000000000E+00
(PID.TID 0000.0001) %MON exf_vwind_max                =   1.0000000000000E+00
(PID.TID 0000.0001) %MON exf_vwind_min                =   1.0000000000000E+00
(PID.TID 0000.0001) %MON exf_vwind_mean               =   1.0000000000000E+00
(PID.TID 0000.0001) %MON exf_vwind_sd                 =   0.0000000000000E+00
(PID.TID 0000.0001) %MON exf_vwind_del2               =   0.0000000000000E+00
(PID.TID 0000.0001) %MON exf_wspeed_max               =   1.4142135623731E+00
(PID.TID 0000.0001) %MON exf_wspeed_min               =   1.4142135623731E+00
(PID.TID 0000.0001) %MON exf_wspeed_mean              =   1.4142135623731E+00
(PID.TID 0000.0001) %MON exf_wspeed_sd                =   0.0000000000000E+00
(PID.TID 0000.0001) %MON exf_wspeed_del2              =   4.0000000000000E+00
(PID.TID 0000.0001) %MON exf_atemp_max                =   2.5300988769531E+02
(PID.TID 0000.0001) %MON exf_atemp_min                =   2.5300988769531E+02
(PID.TID 0000.0001) %MON exf_atemp_mean               =   2.5300988769531E+02
(PID.TID 0000.0001) %MON exf_atemp_sd                 =   0.0000000000000E+00
(PID.TID 0000.0001) %MON exf_atemp_del2               =   5.6993124209260E+01
(PID.TID 0000.0001) %MON exf_lwflux_max               =   1.0642684116826E+02
(PID.TID 0000.0001) %MON exf_lwflux_min               =   1.0642684116826E+02
(PID.TID 0000.0001) %MON exf_lwflux_mean              =   1.0642684116826E+02
(PID.TID 0000.0001) %MON exf_lwflux_sd                =   0.0000000000000E+00
(PID.TID 0000.0001) %MON exf_lwflux_del2              =   3.0102056436137E+02
(PID.TID 0000.0001) %MON exf_swflux_max               =  -1.9490338897705E+01
(PID.TID 0000.0001) %MON exf_swflux_min               =  -1.9490338897705E+01
(PID.TID 0000.0001) %MON exf_swflux_mean              =  -1.9490338897705E+01
(PID.TID 0000.0001) %MON exf_swflux_sd                =   0.0000000000000E+00
(PID.TID 0000.0001) %MON exf_swflux_del2              =   0.0000000000000E+00
(PID.TID 0000.0001) %MON exf_evap_max                 =   2.0667948890064E-08
(PID.TID 0000.0001) %MON exf_evap_min                 =   2.0667948890064E-08
(PID.TID 0000.0001) %MON exf_evap_mean                =   2.0667948890064E-08
(PID.TID 0000.0001) %MON exf_evap_sd                  =   0.0000000000000E+00
(PID.TID 0000.0001) %MON exf_evap_del2                =   5.8457787253525E-08
(PID.TID 0000.0001) %MON exf_swdown_max               =   2.1655932108561E+01
(PID.TID 0000.0001) %MON exf_swdown_min               =   2.1655932108561E+01
(PID.TID 0000.0001) %MON exf_swdown_mean              =   2.1655932108561E+01
(PID.TID 0000.0001) %MON exf_swdown_sd                =   0.0000000000000E+00
(PID.TID 0000.0001) %MON exf_swdown_del2              =   6.1252225787516E+01
(PID.TID 0000.0001) %MON exf_lwdown_max               =   1.9121638997396E+02
(PID.TID 0000.0001) %MON exf_lwdown_min               =   1.9121638997396E+02
(PID.TID 0000.0001) %MON exf_lwdown_mean              =   1.9121638997396E+02
(PID.TID 0000.0001) %MON exf_lwdown_sd                =   0.0000000000000E+00
(PID.TID 0000.0001) %MON exf_lwdown_del2              =   5.4084162409839E+02
(PID.TID 0000.0001) // =======================================================
(PID.TID 0000.0001) // End MONITOR EXF statistics
(PID.TID 0000.0001) // =======================================================
 ph-ice B            2  -1.9227439937105384       1.45024398590970702E-002  4.38365832334864942E-003
 ph-ice C            2   66451.889656113490     
 cg2d: Sum(rhs),rhsMax =   1.00000000000000E+00  1.54115815854818E-05
(PID.TID 0000.0001)      cg2d_init_res =   2.95956792390825E-01
(PID.TID 0000.0001)      cg2d_iters(min,last) =      -1       1
(PID.TID 0000.0001)      cg2d_last_res =   5.55111512312578E-17
(PID.TID 0000.0001) // =======================================================
(PID.TID 0000.0001) // Begin MONITOR dynamic field statistics
(PID.TID 0000.0001) // =======================================================
(PID.TID 0000.0001) %MON time_tsnumber                =                     3
(PID.TID 0000.0001) %MON time_secondsf                =   1.0800000000000E+04
(PID.TID 0000.0001) %MON dynstat_eta_max              =  -4.1006209121900E-03
(PID.TID 0000.0001) %MON dynstat_eta_min              =  -4.1006209121900E-03
(PID.TID 0000.0001) %MON dynstat_eta_mean             =  -4.1006209121900E-03
(PID.TID 0000.0001) %MON dynstat_eta_sd               =   0.0000000000000E+00
(PID.TID 0000.0001) %MON dynstat_eta_del2             =   0.0000000000000E+00
(PID.TID 0000.0001) %MON dynstat_uvel_max             =   4.7710514204999E-03
(PID.TID 0000.0001) %MON dynstat_uvel_min             =   6.8482621884103E-71
(PID.TID 0000.0001) %MON dynstat_uvel_mean            =   1.6909794518162E-04
(PID.TID 0000.0001) %MON dynstat_uvel_sd              =   7.5992825133355E-04
(PID.TID 0000.0001) %MON dynstat_uvel_del2            =   0.0000000000000E+00
(PID.TID 0000.0001) %MON dynstat_vvel_max             =   1.7154372055919E-03
(PID.TID 0000.0001) %MON dynstat_vvel_min             =  -3.2489682009468E-09
(PID.TID 0000.0001) %MON dynstat_vvel_mean            =   4.6411734705986E-05
(PID.TID 0000.0001) %MON dynstat_vvel_sd              =   2.4750831299228E-04
(PID.TID 0000.0001) %MON dynstat_vvel_del2            =   0.0000000000000E+00
(PID.TID 0000.0001) %MON dynstat_wvel_max             =  -0.0000000000000E+00
(PID.TID 0000.0001) %MON dynstat_wvel_min             =  -0.0000000000000E+00
(PID.TID 0000.0001) %MON dynstat_wvel_mean            =   0.0000000000000E+00
(PID.TID 0000.0001) %MON dynstat_wvel_sd              =   0.0000000000000E+00
(PID.TID 0000.0001) %MON dynstat_wvel_del2            =   0.0000000000000E+00
(PID.TID 0000.0001) %MON dynstat_theta_max            =   4.9999999999808E-01
(PID.TID 0000.0001) %MON dynstat_theta_min            =  -1.9169503983102E+00
(PID.TID 0000.0001) %MON dynstat_theta_mean           =  -4.2451080074719E-01
(PID.TID 0000.0001) %MON dynstat_theta_sd             =   8.7822920051542E-01
(PID.TID 0000.0001) %MON dynstat_theta_del2           =   0.0000000000000E+00
(PID.TID 0000.0001) %MON dynstat_salt_max             =   3.4799999999999E+01
(PID.TID 0000.0001) %MON dynstat_salt_min             =   2.9012586555789E+01
(PID.TID 0000.0001) %MON dynstat_salt_mean            =   3.3593210365190E+01
(PID.TID 0000.0001) %MON dynstat_salt_sd              =   1.6846884133513E+00
(PID.TID 0000.0001) %MON dynstat_salt_del2            =   0.0000000000000E+00
(PID.TID 0000.0001) %MON dynstat_sst_max              =  -1.9169503983102E+00
(PID.TID 0000.0001) %MON dynstat_sst_min              =  -1.9169503983102E+00
(PID.TID 0000.0001) %MON dynstat_sst_mean             =  -1.9169503983102E+00
(PID.TID 0000.0001) %MON dynstat_sst_sd               =   0.0000000000000E+00
(PID.TID 0000.0001) %MON dynstat_sst_del2             =   0.0000000000000E+00
(PID.TID 0000.0001) %MON dynstat_sss_max              =   2.9012586555789E+01
(PID.TID 0000.0001) %MON dynstat_sss_min              =   2.9012586555789E+01
(PID.TID 0000.0001) %MON dynstat_sss_mean             =   2.9012586555789E+01
(PID.TID 0000.0001) %MON dynstat_sss_sd               =   3.5527136788005E-15
(PID.TID 0000.0001) %MON dynstat_sss_del2             =   0.0000000000000E+00
(PID.TID 0000.0001) %MON forcing_qnet_max             =   1.2789224855337E+02
(PID.TID 0000.0001) %MON forcing_qnet_min             =   1.2789224855337E+02
(PID.TID 0000.0001) %MON forcing_qnet_mean            =   1.2789224855337E+02
(PID.TID 0000.0001) %MON forcing_qnet_sd              =   0.0000000000000E+00
(PID.TID 0000.0001) %MON forcing_qnet_del2            =   0.0000000000000E+00
(PID.TID 0000.0001) %MON forcing_qsw_max              =  -1.9329504917361E+01
(PID.TID 0000.0001) %MON forcing_qsw_min              =  -1.9329504917361E+01
(PID.TID 0000.0001) %MON forcing_qsw_mean             =  -1.9329504917361E+01
(PID.TID 0000.0001) %MON forcing_qsw_sd               =   0.0000000000000E+00
(PID.TID 0000.0001) %MON forcing_qsw_del2             =   0.0000000000000E+00
(PID.TID 0000.0001) %MON forcing_empmr_max            =   3.4621499736265E-04
(PID.TID 0000.0001) %MON forcing_empmr_min            =   3.4621499736265E-04
(PID.TID 0000.0001) %MON forcing_empmr_mean           =   3.4621499736265E-04
(PID.TID 0000.0001) %MON forcing_empmr_sd             =   0.0000000000000E+00
(PID.TID 0000.0001) %MON forcing_empmr_del2           =   0.0000000000000E+00
(PID.TID 0000.0001) %MON forcing_fu_max               =   5.8991108471420E-03
(PID.TID 0000.0001) %MON forcing_fu_min               =   5.8991108471420E-03
(PID.TID 0000.0001) %MON forcing_fu_mean              =   5.8991108471420E-03
(PID.TID 0000.0001) %MON forcing_fu_sd                =   0.0000000000000E+00
(PID.TID 0000.0001) %MON forcing_fu_del2              =   0.0000000000000E+00
(PID.TID 0000.0001) %MON forcing_fv_max               =   5.8991108471420E-03
(PID.TID 0000.0001) %MON forcing_fv_min               =   5.8991108471420E-03
(PID.TID 0000.0001) %MON forcing_fv_mean              =   5.8991108471420E-03
(PID.TID 0000.0001) %MON forcing_fv_sd                =   0.0000000000000E+00
(PID.TID 0000.0001) %MON forcing_fv_del2              =   0.0000000000000E+00
(PID.TID 0000.0001) %MON advcfl_uvel_max              =   3.4351570227600E-03
(PID.TID 0000.0001) %MON advcfl_vvel_max              =   1.2351147880261E-03
(PID.TID 0000.0001) %MON advcfl_wvel_max              =   0.0000000000000E+00
(PID.TID 0000.0001) %MON advcfl_W_hf_max              =   0.0000000000000E+00
(PID.TID 0000.0001) %MON pe_b_mean                    =  -1.4381860323763E-07
(PID.TID 0000.0001) %MON ke_max                       =   1.2852828231692E-05
(PID.TID 0000.0001) %MON ke_mean                      =   3.3474973817911E-07
(PID.TID 0000.0001) %MON ke_vol                       =   1.2831500000000E+10
(PID.TID 0000.0001) %MON vort_r_min                   =   0.0000000000000E+00
(PID.TID 0000.0001) %MON vort_r_max                   =   0.0000000000000E+00
(PID.TID 0000.0001) %MON vort_a_mean                  =   1.0000000000000E-04
(PID.TID 0000.0001) %MON vort_a_sd                    =   0.0000000000000E+00
(PID.TID 0000.0001) %MON vort_p_mean                  =   1.0000000000000E-04
(PID.TID 0000.0001) %MON vort_p_sd                    =   0.0000000000000E+00
(PID.TID 0000.0001) %MON surfExpan_theta_mean         =   0.0000000000000E+00
(PID.TID 0000.0001) %MON surfExpan_salt_mean          =   0.0000000000000E+00
(PID.TID 0000.0001) // =======================================================
(PID.TID 0000.0001) // End MONITOR dynamic field statistics
(PID.TID 0000.0001) // =======================================================
(PID.TID 0000.0001) // =======================================================
(PID.TID 0000.0001) // Begin MONITOR SEAICE statistics
(PID.TID 0000.0001) // =======================================================
(PID.TID 0000.0001) %MON seaice_tsnumber              =                     3
(PID.TID 0000.0001) %MON seaice_time_sec              =   1.0800000000000E+04
(PID.TID 0000.0001) %MON seaice_uice_max              =   0.0000000000000E+00
(PID.TID 0000.0001) %MON seaice_uice_min              =   0.0000000000000E+00
(PID.TID 0000.0001) %MON seaice_uice_mean             =   0.0000000000000E+00
(PID.TID 0000.0001) %MON seaice_uice_sd               =   0.0000000000000E+00
(PID.TID 0000.0001) %MON seaice_uice_del2             =   0.0000000000000E+00
(PID.TID 0000.0001) %MON seaice_vice_max              =   0.0000000000000E+00
(PID.TID 0000.0001) %MON seaice_vice_min              =   0.0000000000000E+00
(PID.TID 0000.0001) %MON seaice_vice_mean             =   0.0000000000000E+00
(PID.TID 0000.0001) %MON seaice_vice_sd               =   0.0000000000000E+00
(PID.TID 0000.0001) %MON seaice_vice_del2             =   0.0000000000000E+00
(PID.TID 0000.0001) %MON seaice_area_max              =   1.4502439859097E-02
(PID.TID 0000.0001) %MON seaice_area_min              =   1.4502439859097E-02
(PID.TID 0000.0001) %MON seaice_area_mean             =   1.4502439859097E-02
(PID.TID 0000.0001) %MON seaice_area_sd               =   0.0000000000000E+00
(PID.TID 0000.0001) %MON seaice_area_del2             =   0.0000000000000E+00
(PID.TID 0000.0001) %MON seaice_heff_max              =   4.3836583233486E-03
(PID.TID 0000.0001) %MON seaice_heff_min              =   4.3836583233486E-03
(PID.TID 0000.0001) %MON seaice_heff_mean             =   4.3836583233486E-03
(PID.TID 0000.0001) %MON seaice_heff_sd               =   0.0000000000000E+00
(PID.TID 0000.0001) %MON seaice_heff_del2             =   0.0000000000000E+00
(PID.TID 0000.0001) %MON seaice_hsnow_max             =   0.0000000000000E+00
(PID.TID 0000.0001) %MON seaice_hsnow_min             =   0.0000000000000E+00
(PID.TID 0000.0001) %MON seaice_hsnow_mean            =   0.0000000000000E+00
(PID.TID 0000.0001) %MON seaice_hsnow_sd              =   0.0000000000000E+00
(PID.TID 0000.0001) %MON seaice_hsnow_del2            =   0.0000000000000E+00
(PID.TID 0000.0001) %MON seaice_hsalt_max             =   3.4716439200545E+01
(PID.TID 0000.0001) %MON seaice_hsalt_min             =   3.4716439200545E+01
(PID.TID 0000.0001) %MON seaice_hsalt_mean            =   3.4716439200545E+01
(PID.TID 0000.0001) %MON seaice_hsalt_sd              =   0.0000000000000E+00
(PID.TID 0000.0001) %MON seaice_hsalt_del2            =   0.0000000000000E+00
(PID.TID 0000.0001) // =======================================================
(PID.TID 0000.0001) // End MONITOR SEAICE statistics
(PID.TID 0000.0001) // =======================================================
(PID.TID 0000.0001) // =======================================================
(PID.TID 0000.0001) // Begin MONITOR EXF statistics
(PID.TID 0000.0001) // =======================================================
(PID.TID 0000.0001) %MON exf_tsnumber                 =                     3
(PID.TID 0000.0001) %MON exf_time_sec                 =   1.0800000000000E+04
(PID.TID 0000.0001) %MON exf_ustress_max              =   5.9520674761560E-03
(PID.TID 0000.0001) %MON exf_ustress_min              =   5.9520674761560E-03
(PID.TID 0000.0001) %MON exf_ustress_mean             =   5.9520674761560E-03
(PID.TID 0000.0001) %MON exf_ustress_sd               =   0.0000000000000E+00
(PID.TID 0000.0001) %MON exf_ustress_del2             =   0.0000000000000E+00
(PID.TID 0000.0001) %MON exf_vstress_max              =   5.9520674761560E-03
(PID.TID 0000.0001) %MON exf_vstress_min              =   5.9520674761560E-03
(PID.TID 0000.0001) %MON exf_vstress_mean             =   5.9520674761560E-03
(PID.TID 0000.0001) %MON exf_vstress_sd               =   0.0000000000000E+00
(PID.TID 0000.0001) %MON exf_vstress_del2             =   0.0000000000000E+00
(PID.TID 0000.0001) %MON exf_hflux_max                =   2.3762166898203E+02
(PID.TID 0000.0001) %MON exf_hflux_min                =   2.3762166898203E+02
(PID.TID 0000.0001) %MON exf_hflux_mean               =   2.3762166898203E+02
(PID.TID 0000.0001) %MON exf_hflux_sd                 =   0.0000000000000E+00
(PID.TID 0000.0001) %MON exf_hflux_del2               =   0.0000000000000E+00
(PID.TID 0000.0001) %MON exf_sflux_max                =   2.0676563108441E-08
(PID.TID 0000.0001) %MON exf_sflux_min                =   2.0676563108441E-08
(PID.TID 0000.0001) %MON exf_sflux_mean               =   2.0676563108441E-08
(PID.TID 0000.0001) %MON exf_sflux_sd                 =   0.0000000000000E+00
(PID.TID 0000.0001) %MON exf_sflux_del2               =   0.0000000000000E+00
(PID.TID 0000.0001) %MON exf_uwind_max                =   1.0000000000000E+00
(PID.TID 0000.0001) %MON exf_uwind_min                =   1.0000000000000E+00
(PID.TID 0000.0001) %MON exf_uwind_mean               =   1.0000000000000E+00
(PID.TID 0000.0001) %MON exf_uwind_sd                 =   0.0000000000000E+00
(PID.TID 0000.0001) %MON exf_uwind_del2               =   0.0000000000000E+00
(PID.TID 0000.0001) %MON exf_vwind_max                =   1.0000000000000E+00
(PID.TID 0000.0001) %MON exf_vwind_min                =   1.0000000000000E+00
(PID.TID 0000.0001) %MON exf_vwind_mean               =   1.0000000000000E+00
(PID.TID 0000.0001) %MON exf_vwind_sd                 =   0.0000000000000E+00
(PID.TID 0000.0001) %MON exf_vwind_del2               =   0.0000000000000E+00
(PID.TID 0000.0001) %MON exf_wspeed_max               =   1.4142135623731E+00
(PID.TID 0000.0001) %MON exf_wspeed_min               =   1.4142135623731E+00
(PID.TID 0000.0001) %MON exf_wspeed_mean              =   1.4142135623731E+00
(PID.TID 0000.0001) %MON exf_wspeed_sd                =   0.0000000000000E+00
(PID.TID 0000.0001) %MON exf_wspeed_del2              =   4.0000000000000E+00
(PID.TID 0000.0001) %MON exf_atemp_max                =   2.5301428604126E+02
(PID.TID 0000.0001) %MON exf_atemp_min                =   2.5301428604126E+02
(PID.TID 0000.0001) %MON exf_atemp_mean               =   2.5301428604126E+02
(PID.TID 0000.0001) %MON exf_atemp_sd                 =   0.0000000000000E+00
(PID.TID 0000.0001) %MON exf_atemp_del2               =   5.6980683808279E+01
(PID.TID 0000.0001) %MON exf_lwflux_max               =   1.0642271459869E+02
(PID.TID 0000.0001) %MON exf_lwflux_min               =   1.0642271459869E+02
(PID.TID 0000.0001) %MON exf_lwflux_mean              =   1.0642271459869E+02
(PID.TID 0000.0001) %MON exf_lwflux_sd                =   0.0000000000000E+00
(PID.TID 0000.0001) %MON exf_lwflux_del2              =   3.0100889266006E+02
(PID.TID 0000.0001) %MON exf_swflux_max               =  -1.9525133442879E+01
(PID.TID 0000.0001) %MON exf_swflux_min               =  -1.9525133442879E+01
(PID.TID 0000.0001) %MON exf_swflux_mean              =  -1.9525133442879E+01
(PID.TID 0000.0001) %MON exf_swflux_sd                =   0.0000000000000E+00
(PID.TID 0000.0001) %MON exf_swflux_del2              =   0.0000000000000E+00
(PID.TID 0000.0001) %MON exf_evap_max                 =   2.0676563108441E-08
(PID.TID 0000.0001) %MON exf_evap_min                 =   2.0676563108441E-08
(PID.TID 0000.0001) %MON exf_evap_mean                =   2.0676563108441E-08
(PID.TID 0000.0001) %MON exf_evap_sd                  =   0.0000000000000E+00
(PID.TID 0000.0001) %MON exf_evap_del2                =   5.8482151942440E-08
(PID.TID 0000.0001) %MON exf_swdown_max               =   2.1694592714310E+01
(PID.TID 0000.0001) %MON exf_swdown_min               =   2.1694592714310E+01
(PID.TID 0000.0001) %MON exf_swdown_mean              =   2.1694592714310E+01
(PID.TID 0000.0001) %MON exf_swdown_sd                =   0.0000000000000E+00
(PID.TID 0000.0001) %MON exf_swdown_del2              =   6.1361574493475E+01
(PID.TID 0000.0001) %MON exf_lwdown_max               =   1.9124594879150E+02
(PID.TID 0000.0001) %MON exf_lwdown_min               =   1.9124594879150E+02
(PID.TID 0000.0001) %MON exf_lwdown_mean              =   1.9124594879150E+02
(PID.TID 0000.0001) %MON exf_lwdown_sd                =   0.0000000000000E+00
(PID.TID 0000.0001) %MON exf_lwdown_del2              =   5.4092522905971E+02
(PID.TID 0000.0001) // =======================================================
(PID.TID 0000.0001) // End MONITOR EXF statistics
(PID.TID 0000.0001) // =======================================================
 ph-ice B            3  -1.9169503983101603       2.00243116953589158E-002  5.43052631205894702E-003
 ph-ice C            3   116511.27835593579     
 cg2d: Sum(rhs),rhsMax =   1.00000000000000E+00  1.91662434679886E-05
(PID.TID 0000.0001)      cg2d_init_res =   1.95899728018048E-01
(PID.TID 0000.0001)      cg2d_iters(min,last) =      -1       1
(PID.TID 0000.0001)      cg2d_last_res =   0.00000000000000E+00
(PID.TID 0000.0001) // =======================================================
(PID.TID 0000.0001) // Begin MONITOR dynamic field statistics
(PID.TID 0000.0001) // =======================================================
(PID.TID 0000.0001) %MON time_tsnumber                =                     4
(PID.TID 0000.0001) %MON time_secondsf                =   1.4400000000000E+04
(PID.TID 0000.0001) %MON dynstat_eta_max              =  -5.0996387578415E-03
(PID.TID 0000.0001) %MON dynstat_eta_min              =  -5.0996387578415E-03
(PID.TID 0000.0001) %MON dynstat_eta_mean             =  -5.0996387578415E-03
(PID.TID 0000.0001) %MON dynstat_eta_sd               =   0.0000000000000E+00
(PID.TID 0000.0001) %MON dynstat_eta_del2             =   0.0000000000000E+00
(PID.TID 0000.0001) %MON dynstat_uvel_max             =   5.9643999711765E-03
(PID.TID 0000.0001) %MON dynstat_uvel_min             =   1.6600188421570E-70
(PID.TID 0000.0001) %MON dynstat_uvel_mean            =   2.2329673355590E-04
(PID.TID 0000.0001) %MON dynstat_uvel_sd              =   9.7653018438292E-04
(PID.TID 0000.0001) %MON dynstat_uvel_del2            =   0.0000000000000E+00
(PID.TID 0000.0001) %MON dynstat_vvel_max             =   1.0546194768303E-03
(PID.TID 0000.0001) %MON dynstat_vvel_min             =  -3.4879216550890E-04
(PID.TID 0000.0001) %MON dynstat_vvel_mean            =   1.1508680734948E-05
(PID.TID 0000.0001) %MON dynstat_vvel_sd              =   1.5508037527890E-04
(PID.TID 0000.0001) %MON dynstat_vvel_del2            =   0.0000000000000E+00
(PID.TID 0000.0001) %MON dynstat_wvel_max             =  -0.0000000000000E+00
(PID.TID 0000.0001) %MON dynstat_wvel_min             =  -0.0000000000000E+00
(PID.TID 0000.0001) %MON dynstat_wvel_mean            =   0.0000000000000E+00
(PID.TID 0000.0001) %MON dynstat_wvel_sd              =   0.0000000000000E+00
(PID.TID 0000.0001) %MON dynstat_wvel_del2            =   0.0000000000000E+00
(PID.TID 0000.0001) %MON dynstat_theta_max            =   4.9999999999761E-01
(PID.TID 0000.0001) %MON dynstat_theta_min            =  -1.9115570745763E+00
(PID.TID 0000.0001) %MON dynstat_theta_mean           =  -4.2476384804955E-01
(PID.TID 0000.0001) %MON dynstat_theta_sd             =   8.7832871561515E-01
(PID.TID 0000.0001) %MON dynstat_theta_del2           =   0.0000000000000E+00
(PID.TID 0000.0001) %MON dynstat_salt_max             =   3.4799999999999E+01
(PID.TID 0000.0001) %MON dynstat_salt_min             =   2.9014205977426E+01
(PID.TID 0000.0001) %MON dynstat_salt_mean            =   3.3593251105613E+01
(PID.TID 0000.0001) %MON dynstat_salt_sd              =   1.6845758241380E+00
(PID.TID 0000.0001) %MON dynstat_salt_del2            =   0.0000000000000E+00
(PID.TID 0000.0001) %MON dynstat_sst_max              =  -1.9115570745763E+00
(PID.TID 0000.0001) %MON dynstat_sst_min              =  -1.9115570745763E+00
(PID.TID 0000.0001) %MON dynstat_sst_mean             =  -1.9115570745763E+00
(PID.TID 0000.0001) %MON dynstat_sst_sd               =   0.0000000000000E+00
(PID.TID 0000.0001) %MON dynstat_sst_del2             =   0.0000000000000E+00
(PID.TID 0000.0001) %MON dynstat_sss_max              =   2.9014205977426E+01
(PID.TID 0000.0001) %MON dynstat_sss_min              =   2.9014205977426E+01
(PID.TID 0000.0001) %MON dynstat_sss_mean             =   2.9014205977426E+01
(PID.TID 0000.0001) %MON dynstat_sss_sd               =   0.0000000000000E+00
(PID.TID 0000.0001) %MON dynstat_sss_del2             =   0.0000000000000E+00
(PID.TID 0000.0001) %MON forcing_qnet_max             =   1.4768771412199E+02
(PID.TID 0000.0001) %MON forcing_qnet_min             =   1.4768771412199E+02
(PID.TID 0000.0001) %MON forcing_qnet_mean            =   1.4768771412199E+02
(PID.TID 0000.0001) %MON forcing_qnet_sd              =   0.0000000000000E+00
(PID.TID 0000.0001) %MON forcing_qnet_del2            =   0.0000000000000E+00
(PID.TID 0000.0001) %MON forcing_qsw_max              =  -1.9262155475451E+01
(PID.TID 0000.0001) %MON forcing_qsw_min              =  -1.9262155475451E+01
(PID.TID 0000.0001) %MON forcing_qsw_mean             =  -1.9262155475451E+01
(PID.TID 0000.0001) %MON forcing_qsw_sd               =   0.0000000000000E+00
(PID.TID 0000.0001) %MON forcing_qsw_del2             =   0.0000000000000E+00
(PID.TID 0000.0001) %MON forcing_empmr_max            =   2.8499759096785E-04
(PID.TID 0000.0001) %MON forcing_empmr_min            =   2.8499759096785E-04
(PID.TID 0000.0001) %MON forcing_empmr_mean           =   2.8499759096785E-04
(PID.TID 0000.0001) %MON forcing_empmr_sd             =   0.0000000000000E+00
(PID.TID 0000.0001) %MON forcing_empmr_del2           =   0.0000000000000E+00
(PID.TID 0000.0001) %MON forcing_fu_max               =   5.8657479755457E-03
(PID.TID 0000.0001) %MON forcing_fu_min               =   5.8657479755457E-03
(PID.TID 0000.0001) %MON forcing_fu_mean              =   5.8657479755457E-03
(PID.TID 0000.0001) %MON forcing_fu_sd                =   0.0000000000000E+00
(PID.TID 0000.0001) %MON forcing_fu_del2              =   0.0000000000000E+00
(PID.TID 0000.0001) %MON forcing_fv_max               =   5.8657479755457E-03
(PID.TID 0000.0001) %MON forcing_fv_min               =   5.8657479755457E-03
(PID.TID 0000.0001) %MON forcing_fv_mean              =   5.8657479755457E-03
(PID.TID 0000.0001) %MON forcing_fv_sd                =   0.0000000000000E+00
(PID.TID 0000.0001) %MON forcing_fv_del2              =   0.0000000000000E+00
(PID.TID 0000.0001) %MON advcfl_uvel_max              =   4.2943679792471E-03
(PID.TID 0000.0001) %MON advcfl_vvel_max              =   7.5932602331783E-04
(PID.TID 0000.0001) %MON advcfl_wvel_max              =   0.0000000000000E+00
(PID.TID 0000.0001) %MON advcfl_W_hf_max              =   0.0000000000000E+00
(PID.TID 0000.0001) %MON pe_b_mean                    =  -2.2060685663573E-07
(PID.TID 0000.0001) %MON ke_max                       =   1.8343144628540E-05
(PID.TID 0000.0001) %MON ke_mean                      =   5.1382750237829E-07
(PID.TID 0000.0001) %MON ke_vol                       =   1.2831500000000E+10
(PID.TID 0000.0001) %MON vort_r_min                   =   0.0000000000000E+00
(PID.TID 0000.0001) %MON vort_r_max                   =   0.0000000000000E+00
(PID.TID 0000.0001) %MON vort_a_mean                  =   1.0000000000000E-04
(PID.TID 0000.0001) %MON vort_a_sd                    =   0.0000000000000E+00
(PID.TID 0000.0001) %MON vort_p_mean                  =   1.0000000000000E-04
(PID.TID 0000.0001) %MON vort_p_sd                    =   0.0000000000000E+00
(PID.TID 0000.0001) %MON surfExpan_theta_mean         =   0.0000000000000E+00
(PID.TID 0000.0001) %MON surfExpan_salt_mean          =   0.0000000000000E+00
(PID.TID 0000.0001) // =======================================================
(PID.TID 0000.0001) // End MONITOR dynamic field statistics
(PID.TID 0000.0001) // =======================================================
(PID.TID 0000.0001) // =======================================================
(PID.TID 0000.0001) // Begin MONITOR SEAICE statistics
(PID.TID 0000.0001) // =======================================================
(PID.TID 0000.0001) %MON seaice_tsnumber              =                     4
(PID.TID 0000.0001) %MON seaice_time_sec              =   1.4400000000000E+04
(PID.TID 0000.0001) %MON seaice_uice_max              =   0.0000000000000E+00
(PID.TID 0000.0001) %MON seaice_uice_min              =   0.0000000000000E+00
(PID.TID 0000.0001) %MON seaice_uice_mean             =   0.0000000000000E+00
(PID.TID 0000.0001) %MON seaice_uice_sd               =   0.0000000000000E+00
(PID.TID 0000.0001) %MON seaice_uice_del2             =   0.0000000000000E+00
(PID.TID 0000.0001) %MON seaice_vice_max              =   0.0000000000000E+00
(PID.TID 0000.0001) %MON seaice_vice_min              =   0.0000000000000E+00
(PID.TID 0000.0001) %MON seaice_vice_mean             =   0.0000000000000E+00
(PID.TID 0000.0001) %MON seaice_vice_sd               =   0.0000000000000E+00
(PID.TID 0000.0001) %MON seaice_vice_del2             =   0.0000000000000E+00
(PID.TID 0000.0001) %MON seaice_area_max              =   2.0024311695359E-02
(PID.TID 0000.0001) %MON seaice_area_min              =   2.0024311695359E-02
(PID.TID 0000.0001) %MON seaice_area_mean             =   2.0024311695359E-02
(PID.TID 0000.0001) %MON seaice_area_sd               =   0.0000000000000E+00
(PID.TID 0000.0001) %MON seaice_area_del2             =   0.0000000000000E+00
(PID.TID 0000.0001) %MON seaice_heff_max              =   5.4305263120589E-03
(PID.TID 0000.0001) %MON seaice_heff_min              =   5.4305263120589E-03
(PID.TID 0000.0001) %MON seaice_heff_mean             =   5.4305263120589E-03
(PID.TID 0000.0001) %MON seaice_heff_sd               =   0.0000000000000E+00
(PID.TID 0000.0001) %MON seaice_heff_del2             =   0.0000000000000E+00
(PID.TID 0000.0001) %MON seaice_hsnow_max             =   0.0000000000000E+00
(PID.TID 0000.0001) %MON seaice_hsnow_min             =   0.0000000000000E+00
(PID.TID 0000.0001) %MON seaice_hsnow_mean            =   0.0000000000000E+00
(PID.TID 0000.0001) %MON seaice_hsnow_sd              =   0.0000000000000E+00
(PID.TID 0000.0001) %MON seaice_hsnow_del2            =   0.0000000000000E+00
(PID.TID 0000.0001) %MON seaice_hsalt_max             =   4.3008090241385E+01
(PID.TID 0000.0001) %MON seaice_hsalt_min             =   4.3008090241385E+01
(PID.TID 0000.0001) %MON seaice_hsalt_mean            =   4.3008090241385E+01
(PID.TID 0000.0001) %MON seaice_hsalt_sd              =   0.0000000000000E+00
(PID.TID 0000.0001) %MON seaice_hsalt_del2            =   0.0000000000000E+00
(PID.TID 0000.0001) // =======================================================
(PID.TID 0000.0001) // End MONITOR SEAICE statistics
(PID.TID 0000.0001) // =======================================================
(PID.TID 0000.0001) // =======================================================
(PID.TID 0000.0001) // Begin MONITOR EXF statistics
(PID.TID 0000.0001) // =======================================================
(PID.TID 0000.0001) %MON exf_tsnumber                 =                     4
(PID.TID 0000.0001) %MON exf_time_sec                 =   1.4400000000000E+04
(PID.TID 0000.0001) %MON exf_ustress_max              =   5.9521074266644E-03
(PID.TID 0000.0001) %MON exf_ustress_min              =   5.9521074266644E-03
(PID.TID 0000.0001) %MON exf_ustress_mean             =   5.9521074266644E-03
(PID.TID 0000.0001) %MON exf_ustress_sd               =   0.0000000000000E+00
(PID.TID 0000.0001) %MON exf_ustress_del2             =   0.0000000000000E+00
(PID.TID 0000.0001) %MON exf_vstress_max              =   5.9521074266644E-03
(PID.TID 0000.0001) %MON exf_vstress_min              =   5.9521074266644E-03
(PID.TID 0000.0001) %MON exf_vstress_mean             =   5.9521074266644E-03
(PID.TID 0000.0001) %MON exf_vstress_sd               =   0.0000000000000E+00
(PID.TID 0000.0001) %MON exf_vstress_del2             =   0.0000000000000E+00
(PID.TID 0000.0001) %MON exf_hflux_max                =   2.3760719314942E+02
(PID.TID 0000.0001) %MON exf_hflux_min                =   2.3760719314942E+02
(PID.TID 0000.0001) %MON exf_hflux_mean               =   2.3760719314942E+02
(PID.TID 0000.0001) %MON exf_hflux_sd                 =   0.0000000000000E+00
(PID.TID 0000.0001) %MON exf_hflux_del2               =   0.0000000000000E+00
(PID.TID 0000.0001) %MON exf_sflux_max                =   2.0684510816602E-08
(PID.TID 0000.0001) %MON exf_sflux_min                =   2.0684510816602E-08
(PID.TID 0000.0001) %MON exf_sflux_mean               =   2.0684510816602E-08
(PID.TID 0000.0001) %MON exf_sflux_sd                 =   0.0000000000000E+00
(PID.TID 0000.0001) %MON exf_sflux_del2               =   0.0000000000000E+00
(PID.TID 0000.0001) %MON exf_uwind_max                =   1.0000000000000E+00
(PID.TID 0000.0001) %MON exf_uwind_min                =   1.0000000000000E+00
(PID.TID 0000.0001) %MON exf_uwind_mean               =   1.0000000000000E+00
(PID.TID 0000.0001) %MON exf_uwind_sd                 =   0.0000000000000E+00
(PID.TID 0000.0001) %MON exf_uwind_del2               =   0.0000000000000E+00
(PID.TID 0000.0001) %MON exf_vwind_max                =   1.0000000000000E+00
(PID.TID 0000.0001) %MON exf_vwind_min                =   1.0000000000000E+00
(PID.TID 0000.0001) %MON exf_vwind_mean               =   1.0000000000000E+00
(PID.TID 0000.0001) %MON exf_vwind_sd                 =   0.0000000000000E+00
(PID.TID 0000.0001) %MON exf_vwind_del2               =   0.0000000000000E+00
(PID.TID 0000.0001) %MON exf_wspeed_max               =   1.4142135623731E+00
(PID.TID 0000.0001) %MON exf_wspeed_min               =   1.4142135623731E+00
(PID.TID 0000.0001) %MON exf_wspeed_mean              =   1.4142135623731E+00
(PID.TID 0000.0001) %MON exf_wspeed_sd                =   0.0000000000000E+00
(PID.TID 0000.0001) %MON exf_wspeed_del2              =   4.0000000000000E+00
(PID.TID 0000.0001) %MON exf_atemp_max                =   2.5301868438721E+02
(PID.TID 0000.0001) %MON exf_atemp_min                =   2.5301868438721E+02
(PID.TID 0000.0001) %MON exf_atemp_mean               =   2.5301868438721E+02
(PID.TID 0000.0001) %MON exf_atemp_sd                 =   0.0000000000000E+00
(PID.TID 0000.0001) %MON exf_atemp_del2               =   5.6968243407298E+01
(PID.TID 0000.0001) %MON exf_lwflux_max               =   1.0641683241428E+02
(PID.TID 0000.0001) %MON exf_lwflux_min               =   1.0641683241428E+02
(PID.TID 0000.0001) %MON exf_lwflux_mean              =   1.0641683241428E+02
(PID.TID 0000.0001) %MON exf_lwflux_sd                =   0.0000000000000E+00
(PID.TID 0000.0001) %MON exf_lwflux_del2              =   3.0099225533011E+02
(PID.TID 0000.0001) %MON exf_swflux_max               =  -1.9559927988052E+01
(PID.TID 0000.0001) %MON exf_swflux_min               =  -1.9559927988052E+01
(PID.TID 0000.0001) %MON exf_swflux_mean              =  -1.9559927988052E+01
(PID.TID 0000.0001) %MON exf_swflux_sd                =   0.0000000000000E+00
(PID.TID 0000.0001) %MON exf_swflux_del2              =   0.0000000000000E+00
(PID.TID 0000.0001) %MON exf_evap_max                 =   2.0684510816602E-08
(PID.TID 0000.0001) %MON exf_evap_min                 =   2.0684510816602E-08
(PID.TID 0000.0001) %MON exf_evap_mean                =   2.0684510816602E-08
(PID.TID 0000.0001) %MON exf_evap_sd                  =   0.0000000000000E+00
(PID.TID 0000.0001) %MON exf_evap_del2                =   5.8504631455783E-08
(PID.TID 0000.0001) %MON exf_swdown_max               =   2.1733253320058E+01
(PID.TID 0000.0001) %MON exf_swdown_min               =   2.1733253320058E+01
(PID.TID 0000.0001) %MON exf_swdown_mean              =   2.1733253320058E+01
(PID.TID 0000.0001) %MON exf_swdown_sd                =   0.0000000000000E+00
(PID.TID 0000.0001) %MON exf_swdown_del2              =   6.1470923199433E+01
(PID.TID 0000.0001) %MON exf_lwdown_max               =   1.9127550760905E+02
(PID.TID 0000.0001) %MON exf_lwdown_min               =   1.9127550760905E+02
(PID.TID 0000.0001) %MON exf_lwdown_mean              =   1.9127550760905E+02
(PID.TID 0000.0001) %MON exf_lwdown_sd                =   0.0000000000000E+00
(PID.TID 0000.0001) %MON exf_lwdown_del2              =   5.4100883402103E+02
(PID.TID 0000.0001) // =======================================================
(PID.TID 0000.0001) // End MONITOR EXF statistics
(PID.TID 0000.0001) // =======================================================
 ph-ice B            4  -1.9115570745763173       2.54432224317699476E-002  6.25461635597696335E-003
 ph-ice C            4   180117.56759399295     
 cg2d: Sum(rhs),rhsMax =   1.00000000000000E+00  2.21776120085292E-05
(PID.TID 0000.0001)      cg2d_init_res =   1.35784165553559E-01
(PID.TID 0000.0001)      cg2d_iters(min,last) =      -1       1
(PID.TID 0000.0001)      cg2d_last_res =   0.00000000000000E+00
(PID.TID 0000.0001) // =======================================================
(PID.TID 0000.0001) // Begin MONITOR dynamic field statistics
(PID.TID 0000.0001) // =======================================================
(PID.TID 0000.0001) %MON time_tsnumber                =                     5
(PID.TID 0000.0001) %MON time_secondsf                =   1.8000000000000E+04
(PID.TID 0000.0001) %MON dynstat_eta_max              =  -5.9008855827174E-03
(PID.TID 0000.0001) %MON dynstat_eta_min              =  -5.9008855827174E-03
(PID.TID 0000.0001) %MON dynstat_eta_mean             =  -5.9008855827174E-03
(PID.TID 0000.0001) %MON dynstat_eta_sd               =   0.0000000000000E+00
(PID.TID 0000.0001) %MON dynstat_eta_del2             =   0.0000000000000E+00
(PID.TID 0000.0001) %MON dynstat_uvel_max             =   6.7816239424448E-03
(PID.TID 0000.0001) %MON dynstat_uvel_min             =   4.3219565742521E-70
(PID.TID 0000.0001) %MON dynstat_uvel_mean            =   2.5960273681209E-04
(PID.TID 0000.0001) %MON dynstat_uvel_sd              =   1.1235206496236E-03
(PID.TID 0000.0001) %MON dynstat_uvel_del2            =   0.0000000000000E+00
(PID.TID 0000.0001) %MON dynstat_vvel_max             =   9.1719175296900E-05
(PID.TID 0000.0001) %MON dynstat_vvel_min             =  -1.0863307855922E-03
(PID.TID 0000.0001) %MON dynstat_vvel_mean            =  -4.0883143784656E-05
(PID.TID 0000.0001) %MON dynstat_vvel_sd              =   2.0188842946248E-04
(PID.TID 0000.0001) %MON dynstat_vvel_del2            =   0.0000000000000E+00
(PID.TID 0000.0001) %MON dynstat_wvel_max             =  -0.0000000000000E+00
(PID.TID 0000.0001) %MON dynstat_wvel_min             =  -0.0000000000000E+00
(PID.TID 0000.0001) %MON dynstat_wvel_mean            =   0.0000000000000E+00
(PID.TID 0000.0001) %MON dynstat_wvel_sd              =   0.0000000000000E+00
(PID.TID 0000.0001) %MON dynstat_wvel_del2            =   0.0000000000000E+00
(PID.TID 0000.0001) %MON dynstat_theta_max            =   4.9999999999714E-01
(PID.TID 0000.0001) %MON dynstat_theta_min            =  -1.9071999935479E+00
(PID.TID 0000.0001) %MON dynstat_theta_mean           =  -4.2504805950501E-01
(PID.TID 0000.0001) %MON dynstat_theta_sd             =   8.7853749807791E-01
(PID.TID 0000.0001) %MON dynstat_theta_del2           =   0.0000000000000E+00
(PID.TID 0000.0001) %MON dynstat_salt_max             =   3.4799999999999E+01
(PID.TID 0000.0001) %MON dynstat_salt_min             =   2.9015637868875E+01
(PID.TID 0000.0001) %MON dynstat_salt_mean            =   3.3593284016093E+01
(PID.TID 0000.0001) %MON dynstat_salt_sd              =   1.6844848732063E+00
(PID.TID 0000.0001) %MON dynstat_salt_del2            =   0.0000000000000E+00
(PID.TID 0000.0001) %MON dynstat_sst_max              =  -1.9071999935479E+00
(PID.TID 0000.0001) %MON dynstat_sst_min              =  -1.9071999935479E+00
(PID.TID 0000.0001) %MON dynstat_sst_mean             =  -1.9071999935479E+00
(PID.TID 0000.0001) %MON dynstat_sst_sd               =   0.0000000000000E+00
(PID.TID 0000.0001) %MON dynstat_sst_del2             =   0.0000000000000E+00
(PID.TID 0000.0001) %MON dynstat_sss_max              =   2.9015637868875E+01
(PID.TID 0000.0001) %MON dynstat_sss_min              =   2.9015637868875E+01
(PID.TID 0000.0001) %MON dynstat_sss_mean             =   2.9015637868875E+01
(PID.TID 0000.0001) %MON dynstat_sss_sd               =   0.0000000000000E+00
(PID.TID 0000.0001) %MON dynstat_sss_del2             =   0.0000000000000E+00
(PID.TID 0000.0001) %MON forcing_qnet_max             =   1.6587626025837E+02
(PID.TID 0000.0001) %MON forcing_qnet_min             =   1.6587626025837E+02
(PID.TID 0000.0001) %MON forcing_qnet_mean            =   1.6587626025837E+02
(PID.TID 0000.0001) %MON forcing_qnet_sd              =   0.0000000000000E+00
(PID.TID 0000.0001) %MON forcing_qnet_del2            =   0.0000000000000E+00
(PID.TID 0000.0001) %MON forcing_qsw_max              =  -1.9196085094931E+01
(PID.TID 0000.0001) %MON forcing_qsw_min              =  -1.9196085094931E+01
(PID.TID 0000.0001) %MON forcing_qsw_mean             =  -1.9196085094931E+01
(PID.TID 0000.0001) %MON forcing_qsw_sd               =   0.0000000000000E+00
(PID.TID 0000.0001) %MON forcing_qsw_del2             =   0.0000000000000E+00
(PID.TID 0000.0001) %MON forcing_empmr_max            =   2.2857791365159E-04
(PID.TID 0000.0001) %MON forcing_empmr_min            =   2.2857791365159E-04
(PID.TID 0000.0001) %MON forcing_empmr_mean           =   2.2857791365159E-04
(PID.TID 0000.0001) %MON forcing_empmr_sd             =   0.0000000000000E+00
(PID.TID 0000.0001) %MON forcing_empmr_del2           =   0.0000000000000E+00
(PID.TID 0000.0001) %MON forcing_fu_max               =   5.8329205723086E-03
(PID.TID 0000.0001) %MON forcing_fu_min               =   5.8329205723086E-03
(PID.TID 0000.0001) %MON forcing_fu_mean              =   5.8329205723086E-03
(PID.TID 0000.0001) %MON forcing_fu_sd                =   0.0000000000000E+00
(PID.TID 0000.0001) %MON forcing_fu_del2              =   0.0000000000000E+00
(PID.TID 0000.0001) %MON forcing_fv_max               =   5.8329205723086E-03
(PID.TID 0000.0001) %MON forcing_fv_min               =   5.8329205723086E-03
(PID.TID 0000.0001) %MON forcing_fv_mean              =   5.8329205723086E-03
(PID.TID 0000.0001) %MON forcing_fv_sd                =   0.0000000000000E+00
(PID.TID 0000.0001) %MON forcing_fv_del2              =   0.0000000000000E+00
(PID.TID 0000.0001) %MON advcfl_uvel_max              =   4.8827692385602E-03
(PID.TID 0000.0001) %MON advcfl_vvel_max              =   7.8215816562639E-04
(PID.TID 0000.0001) %MON advcfl_wvel_max              =   0.0000000000000E+00
(PID.TID 0000.0001) %MON advcfl_W_hf_max              =   0.0000000000000E+00
(PID.TID 0000.0001) %MON pe_b_mean                    =  -2.9246125555534E-07
(PID.TID 0000.0001) %MON ke_max                       =   2.2999417851929E-05
(PID.TID 0000.0001) %MON ke_mean                      =   6.8606130024374E-07
(PID.TID 0000.0001) %MON ke_vol                       =   1.2831500000000E+10
(PID.TID 0000.0001) %MON vort_r_min                   =   0.0000000000000E+00
(PID.TID 0000.0001) %MON vort_r_max                   =   0.0000000000000E+00
(PID.TID 0000.0001) %MON vort_a_mean                  =   1.0000000000000E-04
(PID.TID 0000.0001) %MON vort_a_sd                    =   0.0000000000000E+00
(PID.TID 0000.0001) %MON vort_p_mean                  =   1.0000000000000E-04
(PID.TID 0000.0001) %MON vort_p_sd                    =   0.0000000000000E+00
(PID.TID 0000.0001) %MON surfExpan_theta_mean         =   0.0000000000000E+00
(PID.TID 0000.0001) %MON surfExpan_salt_mean          =   0.0000000000000E+00
(PID.TID 0000.0001) // =======================================================
(PID.TID 0000.0001) // End MONITOR dynamic field statistics
(PID.TID 0000.0001) // =======================================================
(PID.TID 0000.0001) // =======================================================
(PID.TID 0000.0001) // Begin MONITOR SEAICE statistics
(PID.TID 0000.0001) // =======================================================
(PID.TID 0000.0001) %MON seaice_tsnumber              =                     5
(PID.TID 0000.0001) %MON seaice_time_sec              =   1.8000000000000E+04
(PID.TID 0000.0001) %MON seaice_uice_max              =   0.0000000000000E+00
(PID.TID 0000.0001) %MON seaice_uice_min              =   0.0000000000000E+00
(PID.TID 0000.0001) %MON seaice_uice_mean             =   0.0000000000000E+00
(PID.TID 0000.0001) %MON seaice_uice_sd               =   0.0000000000000E+00
(PID.TID 0000.0001) %MON seaice_uice_del2             =   0.0000000000000E+00
(PID.TID 0000.0001) %MON seaice_vice_max              =   0.0000000000000E+00
(PID.TID 0000.0001) %MON seaice_vice_min              =   0.0000000000000E+00
(PID.TID 0000.0001) %MON seaice_vice_mean             =   0.0000000000000E+00
(PID.TID 0000.0001) %MON seaice_vice_sd               =   0.0000000000000E+00
(PID.TID 0000.0001) %MON seaice_vice_del2             =   0.0000000000000E+00
(PID.TID 0000.0001) %MON seaice_area_max              =   2.5443222431770E-02
(PID.TID 0000.0001) %MON seaice_area_min              =   2.5443222431770E-02
(PID.TID 0000.0001) %MON seaice_area_mean             =   2.5443222431770E-02
(PID.TID 0000.0001) %MON seaice_area_sd               =   0.0000000000000E+00
(PID.TID 0000.0001) %MON seaice_area_del2             =   0.0000000000000E+00
(PID.TID 0000.0001) %MON seaice_heff_max              =   6.2546163559770E-03
(PID.TID 0000.0001) %MON seaice_heff_min              =   6.2546163559770E-03
(PID.TID 0000.0001) %MON seaice_heff_mean             =   6.2546163559770E-03
(PID.TID 0000.0001) %MON seaice_heff_sd               =   0.0000000000000E+00
(PID.TID 0000.0001) %MON seaice_heff_del2             =   0.0000000000000E+00
(PID.TID 0000.0001) %MON seaice_hsnow_max             =   0.0000000000000E+00
(PID.TID 0000.0001) %MON seaice_hsnow_min             =   0.0000000000000E+00
(PID.TID 0000.0001) %MON seaice_hsnow_mean            =   0.0000000000000E+00
(PID.TID 0000.0001) %MON seaice_hsnow_sd              =   0.0000000000000E+00
(PID.TID 0000.0001) %MON seaice_hsnow_del2            =   0.0000000000000E+00
(PID.TID 0000.0001) %MON seaice_hsalt_max             =   4.9535607131329E+01
(PID.TID 0000.0001) %MON seaice_hsalt_min             =   4.9535607131329E+01
(PID.TID 0000.0001) %MON seaice_hsalt_mean            =   4.9535607131329E+01
(PID.TID 0000.0001) %MON seaice_hsalt_sd              =   0.0000000000000E+00
(PID.TID 0000.0001) %MON seaice_hsalt_del2            =   0.0000000000000E+00
(PID.TID 0000.0001) // =======================================================
(PID.TID 0000.0001) // End MONITOR SEAICE statistics
(PID.TID 0000.0001) // =======================================================
(PID.TID 0000.0001) // =======================================================
(PID.TID 0000.0001) // Begin MONITOR EXF statistics
(PID.TID 0000.0001) // =======================================================
(PID.TID 0000.0001) %MON exf_tsnumber                 =                     5
(PID.TID 0000.0001) %MON exf_time_sec                 =   1.8000000000000E+04
(PID.TID 0000.0001) %MON exf_ustress_max              =   5.9520993122108E-03
(PID.TID 0000.0001) %MON exf_ustress_min              =   5.9520993122108E-03
(PID.TID 0000.0001) %MON exf_ustress_mean             =   5.9520993122108E-03
(PID.TID 0000.0001) %MON exf_ustress_sd               =   0.0000000000000E+00
(PID.TID 0000.0001) %MON exf_ustress_del2             =   0.0000000000000E+00
(PID.TID 0000.0001) %MON exf_vstress_max              =   5.9520993122108E-03
(PID.TID 0000.0001) %MON exf_vstress_min              =   5.9520993122108E-03
(PID.TID 0000.0001) %MON exf_vstress_mean             =   5.9520993122108E-03
(PID.TID 0000.0001) %MON exf_vstress_sd               =   0.0000000000000E+00
(PID.TID 0000.0001) %MON exf_vstress_del2             =   0.0000000000000E+00
(PID.TID 0000.0001) %MON exf_hflux_max                =   2.3757709475437E+02
(PID.TID 0000.0001) %MON exf_hflux_min                =   2.3757709475437E+02
(PID.TID 0000.0001) %MON exf_hflux_mean               =   2.3757709475437E+02
(PID.TID 0000.0001) %MON exf_hflux_sd                 =   0.0000000000000E+00
(PID.TID 0000.0001) %MON exf_hflux_del2               =   0.0000000000000E+00
(PID.TID 0000.0001) %MON exf_sflux_max                =   2.0690726909833E-08
(PID.TID 0000.0001) %MON exf_sflux_min                =   2.0690726909833E-08
(PID.TID 0000.0001) %MON exf_sflux_mean               =   2.0690726909833E-08
(PID.TID 0000.0001) %MON exf_sflux_sd                 =   0.0000000000000E+00
(PID.TID 0000.0001) %MON exf_sflux_del2               =   0.0000000000000E+00
(PID.TID 0000.0001) %MON exf_uwind_max                =   1.0000000000000E+00
(PID.TID 0000.0001) %MON exf_uwind_min                =   1.0000000000000E+00
(PID.TID 0000.0001) %MON exf_uwind_mean               =   1.0000000000000E+00
(PID.TID 0000.0001) %MON exf_uwind_sd                 =   0.0000000000000E+00
(PID.TID 0000.0001) %MON exf_uwind_del2               =   0.0000000000000E+00
(PID.TID 0000.0001) %MON exf_vwind_max                =   1.0000000000000E+00
(PID.TID 0000.0001) %MON exf_vwind_min                =   1.0000000000000E+00
(PID.TID 0000.0001) %MON exf_vwind_mean               =   1.0000000000000E+00
(PID.TID 0000.0001) %MON exf_vwind_sd                 =   0.0000000000000E+00
(PID.TID 0000.0001) %MON exf_vwind_del2               =   0.0000000000000E+00
(PID.TID 0000.0001) %MON exf_wspeed_max               =   1.4142135623731E+00
(PID.TID 0000.0001) %MON exf_wspeed_min               =   1.4142135623731E+00
(PID.TID 0000.0001) %MON exf_wspeed_mean              =   1.4142135623731E+00
(PID.TID 0000.0001) %MON exf_wspeed_sd                =   0.0000000000000E+00
(PID.TID 0000.0001) %MON exf_wspeed_del2              =   4.0000000000000E+00
(PID.TID 0000.0001) %MON exf_atemp_max                =   2.5302308273315E+02
(PID.TID 0000.0001) %MON exf_atemp_min                =   2.5302308273315E+02
(PID.TID 0000.0001) %MON exf_atemp_mean               =   2.5302308273315E+02
(PID.TID 0000.0001) %MON exf_atemp_sd                 =   0.0000000000000E+00
(PID.TID 0000.0001) %MON exf_atemp_del2               =   5.6955803006316E+01
(PID.TID 0000.0001) %MON exf_lwflux_max               =   1.0640640216696E+02
(PID.TID 0000.0001) %MON exf_lwflux_min               =   1.0640640216696E+02
(PID.TID 0000.0001) %MON exf_lwflux_mean              =   1.0640640216696E+02
(PID.TID 0000.0001) %MON exf_lwflux_sd                =   0.0000000000000E+00
(PID.TID 0000.0001) %MON exf_lwflux_del2              =   3.0096275413567E+02
(PID.TID 0000.0001) %MON exf_swflux_max               =  -1.9594722533226E+01
(PID.TID 0000.0001) %MON exf_swflux_min               =  -1.9594722533226E+01
(PID.TID 0000.0001) %MON exf_swflux_mean              =  -1.9594722533226E+01
(PID.TID 0000.0001) %MON exf_swflux_sd                =   0.0000000000000E+00
(PID.TID 0000.0001) %MON exf_swflux_del2              =   0.0000000000000E+00
(PID.TID 0000.0001) %MON exf_evap_max                 =   2.0690726909833E-08
(PID.TID 0000.0001) %MON exf_evap_min                 =   2.0690726909833E-08
(PID.TID 0000.0001) %MON exf_evap_mean                =   2.0690726909833E-08
(PID.TID 0000.0001) %MON exf_evap_sd                  =   0.0000000000000E+00
(PID.TID 0000.0001) %MON exf_evap_del2                =   5.8522213222488E-08
(PID.TID 0000.0001) %MON exf_swdown_max               =   2.1771913925807E+01
(PID.TID 0000.0001) %MON exf_swdown_min               =   2.1771913925807E+01
(PID.TID 0000.0001) %MON exf_swdown_mean              =   2.1771913925807E+01
(PID.TID 0000.0001) %MON exf_swdown_sd                =   0.0000000000000E+00
(PID.TID 0000.0001) %MON exf_swdown_del2              =   6.1580271905391E+01
(PID.TID 0000.0001) %MON exf_lwdown_max               =   1.9130506642660E+02
(PID.TID 0000.0001) %MON exf_lwdown_min               =   1.9130506642660E+02
(PID.TID 0000.0001) %MON exf_lwdown_mean              =   1.9130506642660E+02
(PID.TID 0000.0001) %MON exf_lwdown_sd                =   0.0000000000000E+00
(PID.TID 0000.0001) %MON exf_lwdown_del2              =   5.4109243898235E+02
(PID.TID 0000.0001) // =======================================================
(PID.TID 0000.0001) // End MONITOR EXF statistics
(PID.TID 0000.0001) // =======================================================
 ph-ice B            5  -1.9071999935479296       3.07544671499782700E-002  6.90084987693843563E-003
 ph-ice C            5   257001.59980137734     
 cg2d: Sum(rhs),rhsMax =   1.00000000000000E+00  2.45952885913410E-05
(PID.TID 0000.0001)      cg2d_init_res =   9.82983620560843E-02
(PID.TID 0000.0001)      cg2d_iters(min,last) =      -1       1
(PID.TID 0000.0001)      cg2d_last_res =   0.00000000000000E+00
(PID.TID 0000.0001) // =======================================================
(PID.TID 0000.0001) // Begin MONITOR dynamic field statistics
(PID.TID 0000.0001) // =======================================================
(PID.TID 0000.0001) %MON time_tsnumber                =                     6
(PID.TID 0000.0001) %MON time_secondsf                =   2.1600000000000E+04
(PID.TID 0000.0001) %MON dynstat_eta_max              =  -6.5441664231339E-03
(PID.TID 0000.0001) %MON dynstat_eta_min              =  -6.5441664231339E-03
(PID.TID 0000.0001) %MON dynstat_eta_mean             =  -6.5441664231339E-03
(PID.TID 0000.0001) %MON dynstat_eta_sd               =   0.0000000000000E+00
(PID.TID 0000.0001) %MON dynstat_eta_del2             =   0.0000000000000E+00
(PID.TID 0000.0001) %MON dynstat_uvel_max             =   7.1696924815236E-03
(PID.TID 0000.0001) %MON dynstat_uvel_min             =  -1.3231599341543E-36
(PID.TID 0000.0001) %MON dynstat_uvel_mean            =   2.7305209112470E-04
(PID.TID 0000.0001) %MON dynstat_uvel_sd              =   1.1850371957751E-03
(PID.TID 0000.0001) %MON dynstat_uvel_del2            =   0.0000000000000E+00
(PID.TID 0000.0001) %MON dynstat_vvel_max             =  -6.3448132164276E-69
(PID.TID 0000.0001) %MON dynstat_vvel_min             =  -2.0505848733875E-03
(PID.TID 0000.0001) %MON dynstat_vvel_mean            =  -1.0269830556903E-04
(PID.TID 0000.0001) %MON dynstat_vvel_sd              =   4.1056527901585E-04
(PID.TID 0000.0001) %MON dynstat_vvel_del2            =   0.0000000000000E+00
(PID.TID 0000.0001) %MON dynstat_wvel_max             =  -0.0000000000000E+00
(PID.TID 0000.0001) %MON dynstat_wvel_min             =  -0.0000000000000E+00
(PID.TID 0000.0001) %MON dynstat_wvel_mean            =   0.0000000000000E+00
(PID.TID 0000.0001) %MON dynstat_wvel_sd              =   0.0000000000000E+00
(PID.TID 0000.0001) %MON dynstat_wvel_del2            =   0.0000000000000E+00
(PID.TID 0000.0001) %MON dynstat_theta_max            =   4.9999999999667E-01
(PID.TID 0000.0001) %MON dynstat_theta_min            =  -1.9040029624148E+00
(PID.TID 0000.0001) %MON dynstat_theta_mean           =  -4.2535691891655E-01
(PID.TID 0000.0001) %MON dynstat_theta_sd             =   8.7883215980382E-01
(PID.TID 0000.0001) %MON dynstat_theta_del2           =   0.0000000000000E+00
(PID.TID 0000.0001) %MON dynstat_salt_max             =   3.4799999999999E+01
(PID.TID 0000.0001) %MON dynstat_salt_min             =   2.9016880494065E+01
(PID.TID 0000.0001) %MON dynstat_salt_mean            =   3.3593310670797E+01
(PID.TID 0000.0001) %MON dynstat_salt_sd              =   1.6844111920266E+00
(PID.TID 0000.0001) %MON dynstat_salt_del2            =   0.0000000000000E+00
(PID.TID 0000.0001) %MON dynstat_sst_max              =  -1.9040029624148E+00
(PID.TID 0000.0001) %MON dynstat_sst_min              =  -1.9040029624148E+00
(PID.TID 0000.0001) %MON dynstat_sst_mean             =  -1.9040029624148E+00
(PID.TID 0000.0001) %MON dynstat_sst_sd               =   2.2204460492503E-16
(PID.TID 0000.0001) %MON dynstat_sst_del2             =   0.0000000000000E+00
(PID.TID 0000.0001) %MON dynstat_sss_max              =   2.9016880494065E+01
(PID.TID 0000.0001) %MON dynstat_sss_min              =   2.9016880494065E+01
(PID.TID 0000.0001) %MON dynstat_sss_mean             =   2.9016880494065E+01
(PID.TID 0000.0001) %MON dynstat_sss_sd               =   3.5527136788005E-15
(PID.TID 0000.0001) %MON dynstat_sss_del2             =   0.0000000000000E+00
(PID.TID 0000.0001) %MON forcing_qnet_max             =   1.8026171411676E+02
(PID.TID 0000.0001) %MON forcing_qnet_min             =   1.8026171411676E+02
(PID.TID 0000.0001) %MON forcing_qnet_mean            =   1.8026171411676E+02
(PID.TID 0000.0001) %MON forcing_qnet_sd              =   0.0000000000000E+00
(PID.TID 0000.0001) %MON forcing_qnet_del2            =   0.0000000000000E+00
(PID.TID 0000.0001) %MON forcing_qsw_max              =  -1.9131495754285E+01
(PID.TID 0000.0001) %MON forcing_qsw_min              =  -1.9131495754285E+01
(PID.TID 0000.0001) %MON forcing_qsw_mean             =  -1.9131495754285E+01
(PID.TID 0000.0001) %MON forcing_qsw_sd               =   0.0000000000000E+00
(PID.TID 0000.0001) %MON forcing_qsw_del2             =   0.0000000000000E+00
(PID.TID 0000.0001) %MON forcing_empmr_max            =   1.8351372863931E-04
(PID.TID 0000.0001) %MON forcing_empmr_min            =   1.8351372863931E-04
(PID.TID 0000.0001) %MON forcing_empmr_mean           =   1.8351372863931E-04
(PID.TID 0000.0001) %MON forcing_empmr_sd             =   2.7105054312138E-20
(PID.TID 0000.0001) %MON forcing_empmr_del2           =   0.0000000000000E+00
(PID.TID 0000.0001) %MON forcing_fu_max               =   5.8006587254742E-03
(PID.TID 0000.0001) %MON forcing_fu_min               =   5.8006587254742E-03
(PID.TID 0000.0001) %MON forcing_fu_mean              =   5.8006587254742E-03
(PID.TID 0000.0001) %MON forcing_fu_sd                =   0.0000000000000E+00
(PID.TID 0000.0001) %MON forcing_fu_del2              =   0.0000000000000E+00
(PID.TID 0000.0001) %MON forcing_fv_max               =   5.8006587254742E-03
(PID.TID 0000.0001) %MON forcing_fv_min               =   5.8006587254742E-03
(PID.TID 0000.0001) %MON forcing_fv_mean              =   5.8006587254742E-03
(PID.TID 0000.0001) %MON forcing_fv_sd                =   0.0000000000000E+00
(PID.TID 0000.0001) %MON forcing_fv_del2              =   0.0000000000000E+00
(PID.TID 0000.0001) %MON advcfl_uvel_max              =   5.1621785866970E-03
(PID.TID 0000.0001) %MON advcfl_vvel_max              =   1.4764211088390E-03
(PID.TID 0000.0001) %MON advcfl_wvel_max              =   0.0000000000000E+00
(PID.TID 0000.0001) %MON advcfl_W_hf_max              =   0.0000000000000E+00
(PID.TID 0000.0001) %MON pe_b_mean                    =  -3.5575301260302E-07
(PID.TID 0000.0001) %MON ke_max                       =   2.6233164397310E-05
(PID.TID 0000.0001) %MON ke_mean                      =   8.2899069506909E-07
(PID.TID 0000.0001) %MON ke_vol                       =   1.2831500000000E+10
(PID.TID 0000.0001) %MON vort_r_min                   =   0.0000000000000E+00
(PID.TID 0000.0001) %MON vort_r_max                   =   0.0000000000000E+00
(PID.TID 0000.0001) %MON vort_a_mean                  =   1.0000000000000E-04
(PID.TID 0000.0001) %MON vort_a_sd                    =   0.0000000000000E+00
(PID.TID 0000.0001) %MON vort_p_mean                  =   1.0000000000000E-04
(PID.TID 0000.0001) %MON vort_p_sd                    =   0.0000000000000E+00
(PID.TID 0000.0001) %MON surfExpan_theta_mean         =   0.0000000000000E+00
(PID.TID 0000.0001) %MON surfExpan_salt_mean          =   0.0000000000000E+00
(PID.TID 0000.0001) // =======================================================
(PID.TID 0000.0001) // End MONITOR dynamic field statistics
(PID.TID 0000.0001) // =======================================================
(PID.TID 0000.0001) // =======================================================
(PID.TID 0000.0001) // Begin MONITOR SEAICE statistics
(PID.TID 0000.0001) // =======================================================
(PID.TID 0000.0001) %MON seaice_tsnumber              =                     6
(PID.TID 0000.0001) %MON seaice_time_sec              =   2.1600000000000E+04
(PID.TID 0000.0001) %MON seaice_uice_max              =   0.0000000000000E+00
(PID.TID 0000.0001) %MON seaice_uice_min              =   0.0000000000000E+00
(PID.TID 0000.0001) %MON seaice_uice_mean             =   0.0000000000000E+00
(PID.TID 0000.0001) %MON seaice_uice_sd               =   0.0000000000000E+00
(PID.TID 0000.0001) %MON seaice_uice_del2             =   0.0000000000000E+00
(PID.TID 0000.0001) %MON seaice_vice_max              =   0.0000000000000E+00
(PID.TID 0000.0001) %MON seaice_vice_min              =   0.0000000000000E+00
(PID.TID 0000.0001) %MON seaice_vice_mean             =   0.0000000000000E+00
(PID.TID 0000.0001) %MON seaice_vice_sd               =   0.0000000000000E+00
(PID.TID 0000.0001) %MON seaice_vice_del2             =   0.0000000000000E+00
(PID.TID 0000.0001) %MON seaice_area_max              =   3.0754467149978E-02
(PID.TID 0000.0001) %MON seaice_area_min              =   3.0754467149978E-02
(PID.TID 0000.0001) %MON seaice_area_mean             =   3.0754467149978E-02
(PID.TID 0000.0001) %MON seaice_area_sd               =   0.0000000000000E+00
(PID.TID 0000.0001) %MON seaice_area_del2             =   0.0000000000000E+00
(PID.TID 0000.0001) %MON seaice_heff_max              =   6.9008498769384E-03
(PID.TID 0000.0001) %MON seaice_heff_min              =   6.9008498769384E-03
(PID.TID 0000.0001) %MON seaice_heff_mean             =   6.9008498769384E-03
(PID.TID 0000.0001) %MON seaice_heff_sd               =   0.0000000000000E+00
(PID.TID 0000.0001) %MON seaice_heff_del2             =   0.0000000000000E+00
(PID.TID 0000.0001) %MON seaice_hsnow_max             =   0.0000000000000E+00
(PID.TID 0000.0001) %MON seaice_hsnow_min             =   0.0000000000000E+00
(PID.TID 0000.0001) %MON seaice_hsnow_mean            =   0.0000000000000E+00
(PID.TID 0000.0001) %MON seaice_hsnow_sd              =   0.0000000000000E+00
(PID.TID 0000.0001) %MON seaice_hsnow_del2            =   0.0000000000000E+00
(PID.TID 0000.0001) %MON seaice_hsalt_max             =   5.4654596776993E+01
(PID.TID 0000.0001) %MON seaice_hsalt_min             =   5.4654596776993E+01
(PID.TID 0000.0001) %MON seaice_hsalt_mean            =   5.4654596776993E+01
(PID.TID 0000.0001) %MON seaice_hsalt_sd              =   0.0000000000000E+00
(PID.TID 0000.0001) %MON seaice_hsalt_del2            =   0.0000000000000E+00
(PID.TID 0000.0001) // =======================================================
(PID.TID 0000.0001) // End MONITOR SEAICE statistics
(PID.TID 0000.0001) // =======================================================
(PID.TID 0000.0001) // =======================================================
(PID.TID 0000.0001) // Begin MONITOR EXF statistics
(PID.TID 0000.0001) // =======================================================
(PID.TID 0000.0001) %MON exf_tsnumber                 =                     6
(PID.TID 0000.0001) %MON exf_time_sec                 =   2.1600000000000E+04
(PID.TID 0000.0001) %MON exf_ustress_max              =   5.9520373896720E-03
(PID.TID 0000.0001) %MON exf_ustress_min              =   5.9520373896720E-03
(PID.TID 0000.0001) %MON exf_ustress_mean             =   5.9520373896720E-03
(PID.TID 0000.0001) %MON exf_ustress_sd               =   0.0000000000000E+00
(PID.TID 0000.0001) %MON exf_ustress_del2             =   0.0000000000000E+00
(PID.TID 0000.0001) %MON exf_vstress_max              =   5.9520373896720E-03
(PID.TID 0000.0001) %MON exf_vstress_min              =   5.9520373896720E-03
(PID.TID 0000.0001) %MON exf_vstress_mean             =   5.9520373896720E-03
(PID.TID 0000.0001) %MON exf_vstress_sd               =   0.0000000000000E+00
(PID.TID 0000.0001) %MON exf_vstress_del2             =   0.0000000000000E+00
(PID.TID 0000.0001) %MON exf_hflux_max                =   2.3752950200547E+02
(PID.TID 0000.0001) %MON exf_hflux_min                =   2.3752950200547E+02
(PID.TID 0000.0001) %MON exf_hflux_mean               =   2.3752950200547E+02
(PID.TID 0000.0001) %MON exf_hflux_sd                 =   0.0000000000000E+00
(PID.TID 0000.0001) %MON exf_hflux_del2               =   0.0000000000000E+00
(PID.TID 0000.0001) %MON exf_sflux_max                =   2.0695002717441E-08
(PID.TID 0000.0001) %MON exf_sflux_min                =   2.0695002717441E-08
(PID.TID 0000.0001) %MON exf_sflux_mean               =   2.0695002717441E-08
(PID.TID 0000.0001) %MON exf_sflux_sd                 =   3.3087224502121E-24
(PID.TID 0000.0001) %MON exf_sflux_del2               =   0.0000000000000E+00
(PID.TID 0000.0001) %MON exf_uwind_max                =   1.0000000000000E+00
(PID.TID 0000.0001) %MON exf_uwind_min                =   1.0000000000000E+00
(PID.TID 0000.0001) %MON exf_uwind_mean               =   1.0000000000000E+00
(PID.TID 0000.0001) %MON exf_uwind_sd                 =   0.0000000000000E+00
(PID.TID 0000.0001) %MON exf_uwind_del2               =   0.0000000000000E+00
(PID.TID 0000.0001) %MON exf_vwind_max                =   1.0000000000000E+00
(PID.TID 0000.0001) %MON exf_vwind_min                =   1.0000000000000E+00
(PID.TID 0000.0001) %MON exf_vwind_mean               =   1.0000000000000E+00
(PID.TID 0000.0001) %MON exf_vwind_sd                 =   0.0000000000000E+00
(PID.TID 0000.0001) %MON exf_vwind_del2               =   0.0000000000000E+00
(PID.TID 0000.0001) %MON exf_wspeed_max               =   1.4142135623731E+00
(PID.TID 0000.0001) %MON exf_wspeed_min               =   1.4142135623731E+00
(PID.TID 0000.0001) %MON exf_wspeed_mean              =   1.4142135623731E+00
(PID.TID 0000.0001) %MON exf_wspeed_sd                =   0.0000000000000E+00
(PID.TID 0000.0001) %MON exf_wspeed_del2              =   4.0000000000000E+00
(PID.TID 0000.0001) %MON exf_atemp_max                =   2.5302748107910E+02
(PID.TID 0000.0001) %MON exf_atemp_min                =   2.5302748107910E+02
(PID.TID 0000.0001) %MON exf_atemp_mean               =   2.5302748107910E+02
(PID.TID 0000.0001) %MON exf_atemp_sd                 =   0.0000000000000E+00
(PID.TID 0000.0001) %MON exf_atemp_del2               =   5.6943362605335E+01
(PID.TID 0000.0001) %MON exf_lwflux_max               =   1.0639087962483E+02
(PID.TID 0000.0001) %MON exf_lwflux_min               =   1.0639087962483E+02
(PID.TID 0000.0001) %MON exf_lwflux_mean              =   1.0639087962483E+02
(PID.TID 0000.0001) %MON exf_lwflux_sd                =   0.0000000000000E+00
(PID.TID 0000.0001) %MON exf_lwflux_del2              =   3.0091884975647E+02
(PID.TID 0000.0001) %MON exf_swflux_max               =  -1.9629517078400E+01
(PID.TID 0000.0001) %MON exf_swflux_min               =  -1.9629517078400E+01
(PID.TID 0000.0001) %MON exf_swflux_mean              =  -1.9629517078400E+01
(PID.TID 0000.0001) %MON exf_swflux_sd                =   0.0000000000000E+00
(PID.TID 0000.0001) %MON exf_swflux_del2              =   0.0000000000000E+00
(PID.TID 0000.0001) %MON exf_evap_max                 =   2.0695002717441E-08
(PID.TID 0000.0001) %MON exf_evap_min                 =   2.0695002717441E-08
(PID.TID 0000.0001) %MON exf_evap_mean                =   2.0695002717441E-08
(PID.TID 0000.0001) %MON exf_evap_sd                  =   3.3087224502121E-24
(PID.TID 0000.0001) %MON exf_evap_del2                =   5.8534307032705E-08
(PID.TID 0000.0001) %MON exf_swdown_max               =   2.1810574531555E+01
(PID.TID 0000.0001) %MON exf_swdown_min               =   2.1810574531555E+01
(PID.TID 0000.0001) %MON exf_swdown_mean              =   2.1810574531555E+01
(PID.TID 0000.0001) %MON exf_swdown_sd                =   0.0000000000000E+00
(PID.TID 0000.0001) %MON exf_swdown_del2              =   6.1689620611349E+01
(PID.TID 0000.0001) %MON exf_lwdown_max               =   1.9133462524414E+02
(PID.TID 0000.0001) %MON exf_lwdown_min               =   1.9133462524414E+02
(PID.TID 0000.0001) %MON exf_lwdown_mean              =   1.9133462524414E+02
(PID.TID 0000.0001) %MON exf_lwdown_sd                =   0.0000000000000E+00
(PID.TID 0000.0001) %MON exf_lwdown_del2              =   5.4117604394367E+02
(PID.TID 0000.0001) // =======================================================
(PID.TID 0000.0001) // End MONITOR EXF statistics
(PID.TID 0000.0001) // =======================================================
 ph-ice B            6  -1.9040029624148227       3.59579635735914616E-002  7.41854995172976529E-003
 ph-ice C            6   346894.01172391372     
 cg2d: Sum(rhs),rhsMax =   1.00000000000000E+00  2.65835319464703E-05
(PID.TID 0000.0001)      cg2d_init_res =   7.47922946848121E-02
(PID.TID 0000.0001)      cg2d_iters(min,last) =      -1       1
(PID.TID 0000.0001)      cg2d_last_res =   0.00000000000000E+00
(PID.TID 0000.0001) // =======================================================
(PID.TID 0000.0001) // Begin MONITOR dynamic field statistics
(PID.TID 0000.0001) // =======================================================
(PID.TID 0000.0001) %MON time_tsnumber                =                     7
(PID.TID 0000.0001) %MON time_secondsf                =   2.5200000000000E+04
(PID.TID 0000.0001) %MON dynstat_eta_max              =  -7.0731862537880E-03
(PID.TID 0000.0001) %MON dynstat_eta_min              =  -7.0731862537880E-03
(PID.TID 0000.0001) %MON dynstat_eta_mean             =  -7.0731862537880E-03
(PID.TID 0000.0001) %MON dynstat_eta_sd               =   0.0000000000000E+00
(PID.TID 0000.0001) %MON dynstat_eta_del2             =   0.0000000000000E+00
(PID.TID 0000.0001) %MON dynstat_uvel_max             =   7.1072070716136E-03
(PID.TID 0000.0001) %MON dynstat_uvel_min             =  -9.0874276468051E-11
(PID.TID 0000.0001) %MON dynstat_uvel_mean            =   2.6199864487810E-04
(PID.TID 0000.0001) %MON dynstat_uvel_sd              =   1.1566323319177E-03
(PID.TID 0000.0001) %MON dynstat_uvel_del2            =   0.0000000000000E+00
(PID.TID 0000.0001) %MON dynstat_vvel_max             =  -2.6903268414874E-68
(PID.TID 0000.0001) %MON dynstat_vvel_min             =  -3.1066861092650E-03
(PID.TID 0000.0001) %MON dynstat_vvel_mean            =  -1.6463210020178E-04
(PID.TID 0000.0001) %MON dynstat_vvel_sd              =   6.4172998116884E-04
(PID.TID 0000.0001) %MON dynstat_vvel_del2            =   0.0000000000000E+00
(PID.TID 0000.0001) %MON dynstat_wvel_max             =  -0.0000000000000E+00
(PID.TID 0000.0001) %MON dynstat_wvel_min             =  -0.0000000000000E+00
(PID.TID 0000.0001) %MON dynstat_wvel_mean            =   0.0000000000000E+00
(PID.TID 0000.0001) %MON dynstat_wvel_sd              =   0.0000000000000E+00
(PID.TID 0000.0001) %MON dynstat_wvel_del2            =   0.0000000000000E+00
(PID.TID 0000.0001) %MON dynstat_theta_max            =   4.9999999999620E-01
(PID.TID 0000.0001) %MON dynstat_theta_min            =  -1.9016149294530E+00
(PID.TID 0000.0001) %MON dynstat_theta_mean           =  -4.2568327590498E-01
(PID.TID 0000.0001) %MON dynstat_theta_sd             =   8.7917349724738E-01
(PID.TID 0000.0001) %MON dynstat_theta_del2           =   0.0000000000000E+00
(PID.TID 0000.0001) %MON dynstat_salt_max             =   3.4799999999999E+01
(PID.TID 0000.0001) %MON dynstat_salt_min             =   2.9017984408724E+01
(PID.TID 0000.0001) %MON dynstat_salt_mean            =   3.3593332798577E+01
(PID.TID 0000.0001) %MON dynstat_salt_sd              =   1.6843499394563E+00
(PID.TID 0000.0001) %MON dynstat_salt_del2            =   0.0000000000000E+00
(PID.TID 0000.0001) %MON dynstat_sst_max              =  -1.9016149294530E+00
(PID.TID 0000.0001) %MON dynstat_sst_min              =  -1.9016149294530E+00
(PID.TID 0000.0001) %MON dynstat_sst_mean             =  -1.9016149294530E+00
(PID.TID 0000.0001) %MON dynstat_sst_sd               =   0.0000000000000E+00
(PID.TID 0000.0001) %MON dynstat_sst_del2             =   0.0000000000000E+00
(PID.TID 0000.0001) %MON dynstat_sss_max              =   2.9017984408724E+01
(PID.TID 0000.0001) %MON dynstat_sss_min              =   2.9017984408724E+01
(PID.TID 0000.0001) %MON dynstat_sss_mean             =   2.9017984408724E+01
(PID.TID 0000.0001) %MON dynstat_sss_sd               =   0.0000000000000E+00
(PID.TID 0000.0001) %MON dynstat_sss_del2             =   0.0000000000000E+00
(PID.TID 0000.0001) %MON forcing_qnet_max             =   1.9047394364672E+02
(PID.TID 0000.0001) %MON forcing_qnet_min             =   1.9047394364672E+02
(PID.TID 0000.0001) %MON forcing_qnet_mean            =   1.9047394364672E+02
(PID.TID 0000.0001) %MON forcing_qnet_sd              =   0.0000000000000E+00
(PID.TID 0000.0001) %MON forcing_qnet_del2            =   0.0000000000000E+00
(PID.TID 0000.0001) %MON forcing_qsw_max              =  -1.9068497590734E+01
(PID.TID 0000.0001) %MON forcing_qsw_min              =  -1.9068497590734E+01
(PID.TID 0000.0001) %MON forcing_qsw_mean             =  -1.9068497590734E+01
(PID.TID 0000.0001) %MON forcing_qsw_sd               =   0.0000000000000E+00
(PID.TID 0000.0001) %MON forcing_qsw_del2             =   0.0000000000000E+00
(PID.TID 0000.0001) %MON forcing_empmr_max            =   1.5091760168955E-04
(PID.TID 0000.0001) %MON forcing_empmr_min            =   1.5091760168955E-04
(PID.TID 0000.0001) %MON forcing_empmr_mean           =   1.5091760168955E-04
(PID.TID 0000.0001) %MON forcing_empmr_sd             =   0.0000000000000E+00
(PID.TID 0000.0001) %MON forcing_empmr_del2           =   0.0000000000000E+00
(PID.TID 0000.0001) %MON forcing_fu_max               =   5.7689856512959E-03
(PID.TID 0000.0001) %MON forcing_fu_min               =   5.7689856512959E-03
(PID.TID 0000.0001) %MON forcing_fu_mean              =   5.7689856512959E-03
(PID.TID 0000.0001) %MON forcing_fu_sd                =   0.0000000000000E+00
(PID.TID 0000.0001) %MON forcing_fu_del2              =   0.0000000000000E+00
(PID.TID 0000.0001) %MON forcing_fv_max               =   5.7689856512959E-03
(PID.TID 0000.0001) %MON forcing_fv_min               =   5.7689856512959E-03
(PID.TID 0000.0001) %MON forcing_fv_mean              =   5.7689856512959E-03
(PID.TID 0000.0001) %MON forcing_fv_sd                =   0.0000000000000E+00
(PID.TID 0000.0001) %MON forcing_fv_del2              =   0.0000000000000E+00
(PID.TID 0000.0001) %MON advcfl_uvel_max              =   5.1171890915618E-03
(PID.TID 0000.0001) %MON advcfl_vvel_max              =   2.2368139986708E-03
(PID.TID 0000.0001) %MON advcfl_wvel_max              =   0.0000000000000E+00
(PID.TID 0000.0001) %MON advcfl_W_hf_max              =   0.0000000000000E+00
(PID.TID 0000.0001) %MON pe_b_mean                    =  -4.1078210219755E-07
(PID.TID 0000.0001) %MON ke_max                       =   2.7575595327918E-05
(PID.TID 0000.0001) %MON ke_mean                      =   9.2268136915154E-07
(PID.TID 0000.0001) %MON ke_vol                       =   1.2831500000000E+10
(PID.TID 0000.0001) %MON vort_r_min                   =   0.0000000000000E+00
(PID.TID 0000.0001) %MON vort_r_max                   =   0.0000000000000E+00
(PID.TID 0000.0001) %MON vort_a_mean                  =   1.0000000000000E-04
(PID.TID 0000.0001) %MON vort_a_sd                    =   0.0000000000000E+00
(PID.TID 0000.0001) %MON vort_p_mean                  =   1.0000000000000E-04
(PID.TID 0000.0001) %MON vort_p_sd                    =   0.0000000000000E+00
(PID.TID 0000.0001) %MON surfExpan_theta_mean         =   0.0000000000000E+00
(PID.TID 0000.0001) %MON surfExpan_salt_mean          =   0.0000000000000E+00
(PID.TID 0000.0001) // =======================================================
(PID.TID 0000.0001) // End MONITOR dynamic field statistics
(PID.TID 0000.0001) // =======================================================
(PID.TID 0000.0001) // =======================================================
(PID.TID 0000.0001) // Begin MONITOR SEAICE statistics
(PID.TID 0000.0001) // =======================================================
(PID.TID 0000.0001) %MON seaice_tsnumber              =                     7
(PID.TID 0000.0001) %MON seaice_time_sec              =   2.5200000000000E+04
(PID.TID 0000.0001) %MON seaice_uice_max              =   0.0000000000000E+00
(PID.TID 0000.0001) %MON seaice_uice_min              =   0.0000000000000E+00
(PID.TID 0000.0001) %MON seaice_uice_mean             =   0.0000000000000E+00
(PID.TID 0000.0001) %MON seaice_uice_sd               =   0.0000000000000E+00
(PID.TID 0000.0001) %MON seaice_uice_del2             =   0.0000000000000E+00
(PID.TID 0000.0001) %MON seaice_vice_max              =   0.0000000000000E+00
(PID.TID 0000.0001) %MON seaice_vice_min              =   0.0000000000000E+00
(PID.TID 0000.0001) %MON seaice_vice_mean             =   0.0000000000000E+00
(PID.TID 0000.0001) %MON seaice_vice_sd               =   0.0000000000000E+00
(PID.TID 0000.0001) %MON seaice_vice_del2             =   0.0000000000000E+00
(PID.TID 0000.0001) %MON seaice_area_max              =   3.5957963573591E-02
(PID.TID 0000.0001) %MON seaice_area_min              =   3.5957963573591E-02
(PID.TID 0000.0001) %MON seaice_area_mean             =   3.5957963573591E-02
(PID.TID 0000.0001) %MON seaice_area_sd               =   0.0000000000000E+00
(PID.TID 0000.0001) %MON seaice_area_del2             =   0.0000000000000E+00
(PID.TID 0000.0001) %MON seaice_heff_max              =   7.4185499517298E-03
(PID.TID 0000.0001) %MON seaice_heff_min              =   7.4185499517298E-03
(PID.TID 0000.0001) %MON seaice_heff_mean             =   7.4185499517298E-03
(PID.TID 0000.0001) %MON seaice_heff_sd               =   0.0000000000000E+00
(PID.TID 0000.0001) %MON seaice_heff_del2             =   0.0000000000000E+00
(PID.TID 0000.0001) %MON seaice_hsnow_max             =   0.0000000000000E+00
(PID.TID 0000.0001) %MON seaice_hsnow_min             =   0.0000000000000E+00
(PID.TID 0000.0001) %MON seaice_hsnow_mean            =   0.0000000000000E+00
(PID.TID 0000.0001) %MON seaice_hsnow_sd              =   0.0000000000000E+00
(PID.TID 0000.0001) %MON seaice_hsnow_del2            =   0.0000000000000E+00
(PID.TID 0000.0001) %MON seaice_hsalt_max             =   5.8755614025136E+01
(PID.TID 0000.0001) %MON seaice_hsalt_min             =   5.8755614025136E+01
(PID.TID 0000.0001) %MON seaice_hsalt_mean            =   5.8755614025136E+01
(PID.TID 0000.0001) %MON seaice_hsalt_sd              =   0.0000000000000E+00
(PID.TID 0000.0001) %MON seaice_hsalt_del2            =   0.0000000000000E+00
(PID.TID 0000.0001) // =======================================================
(PID.TID 0000.0001) // End MONITOR SEAICE statistics
(PID.TID 0000.0001) // =======================================================
(PID.TID 0000.0001) // =======================================================
(PID.TID 0000.0001) // Begin MONITOR EXF statistics
(PID.TID 0000.0001) // =======================================================
(PID.TID 0000.0001) %MON exf_tsnumber                 =                     7
(PID.TID 0000.0001) %MON exf_time_sec                 =   2.5200000000000E+04
(PID.TID 0000.0001) %MON exf_ustress_max              =   5.9519379382007E-03
(PID.TID 0000.0001) %MON exf_ustress_min              =   5.9519379382007E-03
(PID.TID 0000.0001) %MON exf_ustress_mean             =   5.9519379382007E-03
(PID.TID 0000.0001) %MON exf_ustress_sd               =   0.0000000000000E+00
(PID.TID 0000.0001) %MON exf_ustress_del2             =   0.0000000000000E+00
(PID.TID 0000.0001) %MON exf_vstress_max              =   5.9519379382007E-03
(PID.TID 0000.0001) %MON exf_vstress_min              =   5.9519379382007E-03
(PID.TID 0000.0001) %MON exf_vstress_mean             =   5.9519379382007E-03
(PID.TID 0000.0001) %MON exf_vstress_sd               =   0.0000000000000E+00
(PID.TID 0000.0001) %MON exf_vstress_del2             =   0.0000000000000E+00
(PID.TID 0000.0001) %MON exf_hflux_max                =   2.3746970767431E+02
(PID.TID 0000.0001) %MON exf_hflux_min                =   2.3746970767431E+02
(PID.TID 0000.0001) %MON exf_hflux_mean               =   2.3746970767431E+02
(PID.TID 0000.0001) %MON exf_hflux_sd                 =   0.0000000000000E+00
(PID.TID 0000.0001) %MON exf_hflux_del2               =   0.0000000000000E+00
(PID.TID 0000.0001) %MON exf_sflux_max                =   2.0697924837185E-08
(PID.TID 0000.0001) %MON exf_sflux_min                =   2.0697924837185E-08
(PID.TID 0000.0001) %MON exf_sflux_mean               =   2.0697924837185E-08
(PID.TID 0000.0001) %MON exf_sflux_sd                 =   0.0000000000000E+00
(PID.TID 0000.0001) %MON exf_sflux_del2               =   0.0000000000000E+00
(PID.TID 0000.0001) %MON exf_uwind_max                =   1.0000000000000E+00
(PID.TID 0000.0001) %MON exf_uwind_min                =   1.0000000000000E+00
(PID.TID 0000.0001) %MON exf_uwind_mean               =   1.0000000000000E+00
(PID.TID 0000.0001) %MON exf_uwind_sd                 =   0.0000000000000E+00
(PID.TID 0000.0001) %MON exf_uwind_del2               =   0.0000000000000E+00
(PID.TID 0000.0001) %MON exf_vwind_max                =   1.0000000000000E+00
(PID.TID 0000.0001) %MON exf_vwind_min                =   1.0000000000000E+00
(PID.TID 0000.0001) %MON exf_vwind_mean               =   1.0000000000000E+00
(PID.TID 0000.0001) %MON exf_vwind_sd                 =   0.0000000000000E+00
(PID.TID 0000.0001) %MON exf_vwind_del2               =   0.0000000000000E+00
(PID.TID 0000.0001) %MON exf_wspeed_max               =   1.4142135623731E+00
(PID.TID 0000.0001) %MON exf_wspeed_min               =   1.4142135623731E+00
(PID.TID 0000.0001) %MON exf_wspeed_mean              =   1.4142135623731E+00
(PID.TID 0000.0001) %MON exf_wspeed_sd                =   0.0000000000000E+00
(PID.TID 0000.0001) %MON exf_wspeed_del2              =   4.0000000000000E+00
(PID.TID 0000.0001) %MON exf_atemp_max                =   2.5303187942505E+02
(PID.TID 0000.0001) %MON exf_atemp_min                =   2.5303187942505E+02
(PID.TID 0000.0001) %MON exf_atemp_mean               =   2.5303187942505E+02
(PID.TID 0000.0001) %MON exf_atemp_sd                 =   0.0000000000000E+00
(PID.TID 0000.0001) %MON exf_atemp_del2               =   5.6930922204354E+01
(PID.TID 0000.0001) %MON exf_lwflux_max               =   1.0637180557338E+02
(PID.TID 0000.0001) %MON exf_lwflux_min               =   1.0637180557338E+02
(PID.TID 0000.0001) %MON exf_lwflux_mean              =   1.0637180557338E+02
(PID.TID 0000.0001) %MON exf_lwflux_sd                =   0.0000000000000E+00
(PID.TID 0000.0001) %MON exf_lwflux_del2              =   3.0086490019198E+02
(PID.TID 0000.0001) %MON exf_swflux_max               =  -1.9664311623573E+01
(PID.TID 0000.0001) %MON exf_swflux_min               =  -1.9664311623573E+01
(PID.TID 0000.0001) %MON exf_swflux_mean              =  -1.9664311623573E+01
(PID.TID 0000.0001) %MON exf_swflux_sd                =   0.0000000000000E+00
(PID.TID 0000.0001) %MON exf_swflux_del2              =   0.0000000000000E+00
(PID.TID 0000.0001) %MON exf_evap_max                 =   2.0697924837185E-08
(PID.TID 0000.0001) %MON exf_evap_min                 =   2.0697924837185E-08
(PID.TID 0000.0001) %MON exf_evap_mean                =   2.0697924837185E-08
(PID.TID 0000.0001) %MON exf_evap_sd                  =   0.0000000000000E+00
(PID.TID 0000.0001) %MON exf_evap_del2                =   5.8542572035451E-08
(PID.TID 0000.0001) %MON exf_swdown_max               =   2.1849235137304E+01
(PID.TID 0000.0001) %MON exf_swdown_min               =   2.1849235137304E+01
(PID.TID 0000.0001) %MON exf_swdown_mean              =   2.1849235137304E+01
(PID.TID 0000.0001) %MON exf_swdown_sd                =   0.0000000000000E+00
(PID.TID 0000.0001) %MON exf_swdown_del2              =   6.1798969317307E+01
(PID.TID 0000.0001) %MON exf_lwdown_max               =   1.9136418406169E+02
(PID.TID 0000.0001) %MON exf_lwdown_min               =   1.9136418406169E+02
(PID.TID 0000.0001) %MON exf_lwdown_mean              =   1.9136418406169E+02
(PID.TID 0000.0001) %MON exf_lwdown_sd                =   0.0000000000000E+00
(PID.TID 0000.0001) %MON exf_lwdown_del2              =   5.4125964890500E+02
(PID.TID 0000.0001) // =======================================================
(PID.TID 0000.0001) // End MONITOR EXF statistics
(PID.TID 0000.0001) // =======================================================
 ph-ice B            7  -1.9016149294529603       4.10551493303545414E-002  7.84196028398918138E-003
 ph-ice C            7   449529.03407695692     
 cg2d: Sum(rhs),rhsMax =   1.00000000000000E+00  2.82563915778184E-05
(PID.TID 0000.0001)      cg2d_init_res =   5.92028754545026E-02
(PID.TID 0000.0001)      cg2d_iters(min,last) =      -1       1
(PID.TID 0000.0001)      cg2d_last_res =   6.93889390390723E-18
(PID.TID 0000.0001) // =======================================================
(PID.TID 0000.0001) // Begin MONITOR dynamic field statistics
(PID.TID 0000.0001) // =======================================================
(PID.TID 0000.0001) %MON time_tsnumber                =                     8
(PID.TID 0000.0001) %MON time_secondsf                =   2.8800000000000E+04
(PID.TID 0000.0001) %MON dynstat_eta_max              =  -7.5182906805811E-03
(PID.TID 0000.0001) %MON dynstat_eta_min              =  -7.5182906805811E-03
(PID.TID 0000.0001) %MON dynstat_eta_mean             =  -7.5182906805811E-03
(PID.TID 0000.0001) %MON dynstat_eta_sd               =   0.0000000000000E+00
(PID.TID 0000.0001) %MON dynstat_eta_del2             =   0.0000000000000E+00
(PID.TID 0000.0001) %MON dynstat_uvel_max             =   6.6283559575712E-03
(PID.TID 0000.0001) %MON dynstat_uvel_min             =  -3.7649816105744E-06
(PID.TID 0000.0001) %MON dynstat_uvel_mean            =   2.2841371346940E-04
(PID.TID 0000.0001) %MON dynstat_uvel_sd              =   1.0485993052118E-03
(PID.TID 0000.0001) %MON dynstat_uvel_del2            =   0.0000000000000E+00
(PID.TID 0000.0001) %MON dynstat_vvel_max             =  -7.2332609353212E-68
(PID.TID 0000.0001) %MON dynstat_vvel_min             =  -3.9997299480003E-03
(PID.TID 0000.0001) %MON dynstat_vvel_mean            =  -2.1750374366400E-04
(PID.TID 0000.0001) %MON dynstat_vvel_sd              =   8.4137579271840E-04
(PID.TID 0000.0001) %MON dynstat_vvel_del2            =   0.0000000000000E+00
(PID.TID 0000.0001) %MON dynstat_wvel_max             =  -0.0000000000000E+00
(PID.TID 0000.0001) %MON dynstat_wvel_min             =  -0.0000000000000E+00
(PID.TID 0000.0001) %MON dynstat_wvel_mean            =   0.0000000000000E+00
(PID.TID 0000.0001) %MON dynstat_wvel_sd              =   0.0000000000000E+00
(PID.TID 0000.0001) %MON dynstat_wvel_del2            =   0.0000000000000E+00
(PID.TID 0000.0001) %MON dynstat_theta_max            =   4.9999999999573E-01
(PID.TID 0000.0001) %MON dynstat_theta_min            =  -1.8993859387066E+00
(PID.TID 0000.0001) %MON dynstat_theta_mean           =  -4.2602217350919E-01
(PID.TID 0000.0001) %MON dynstat_theta_sd             =   8.7952355004255E-01
(PID.TID 0000.0001) %MON dynstat_theta_del2           =   0.0000000000000E+00
(PID.TID 0000.0001) %MON dynstat_salt_max             =   3.4799999999999E+01
(PID.TID 0000.0001) %MON dynstat_salt_min             =   2.9019021697305E+01
(PID.TID 0000.0001) %MON dynstat_salt_mean            =   3.3593351599960E+01
(PID.TID 0000.0001) %MON dynstat_salt_sd              =   1.6842977179715E+00
(PID.TID 0000.0001) %MON dynstat_salt_del2            =   0.0000000000000E+00
(PID.TID 0000.0001) %MON dynstat_sst_max              =  -1.8993859387066E+00
(PID.TID 0000.0001) %MON dynstat_sst_min              =  -1.8993859387066E+00
(PID.TID 0000.0001) %MON dynstat_sst_mean             =  -1.8993859387066E+00
(PID.TID 0000.0001) %MON dynstat_sst_sd               =   0.0000000000000E+00
(PID.TID 0000.0001) %MON dynstat_sst_del2             =   0.0000000000000E+00
(PID.TID 0000.0001) %MON dynstat_sss_max              =   2.9019021697305E+01
(PID.TID 0000.0001) %MON dynstat_sss_min              =   2.9019021697305E+01
(PID.TID 0000.0001) %MON dynstat_sss_mean             =   2.9019021697305E+01
(PID.TID 0000.0001) %MON dynstat_sss_sd               =   0.0000000000000E+00
(PID.TID 0000.0001) %MON dynstat_sss_del2             =   0.0000000000000E+00
(PID.TID 0000.0001) %MON forcing_qnet_max             =   1.9779310832812E+02
(PID.TID 0000.0001) %MON forcing_qnet_min             =   1.9779310832812E+02
(PID.TID 0000.0001) %MON forcing_qnet_mean            =   1.9779310832812E+02
(PID.TID 0000.0001) %MON forcing_qnet_sd              =   0.0000000000000E+00
(PID.TID 0000.0001) %MON forcing_qnet_del2            =   0.0000000000000E+00
(PID.TID 0000.0001) %MON forcing_qsw_max              =  -1.9007112140315E+01
(PID.TID 0000.0001) %MON forcing_qsw_min              =  -1.9007112140315E+01
(PID.TID 0000.0001) %MON forcing_qsw_mean             =  -1.9007112140315E+01
(PID.TID 0000.0001) %MON forcing_qsw_sd               =   0.0000000000000E+00
(PID.TID 0000.0001) %MON forcing_qsw_del2             =   0.0000000000000E+00
(PID.TID 0000.0001) %MON forcing_empmr_max            =   1.2697840175260E-04
(PID.TID 0000.0001) %MON forcing_empmr_min            =   1.2697840175260E-04
(PID.TID 0000.0001) %MON forcing_empmr_mean           =   1.2697840175260E-04
(PID.TID 0000.0001) %MON forcing_empmr_sd             =   0.0000000000000E+00
(PID.TID 0000.0001) %MON forcing_empmr_del2           =   0.0000000000000E+00
(PID.TID 0000.0001) %MON forcing_fu_max               =   5.7379183706266E-03
(PID.TID 0000.0001) %MON forcing_fu_min               =   5.7379183706266E-03
(PID.TID 0000.0001) %MON forcing_fu_mean              =   5.7379183706266E-03
(PID.TID 0000.0001) %MON forcing_fu_sd                =   0.0000000000000E+00
(PID.TID 0000.0001) %MON forcing_fu_del2              =   0.0000000000000E+00
(PID.TID 0000.0001) %MON forcing_fv_max               =   5.7379183706266E-03
(PID.TID 0000.0001) %MON forcing_fv_min               =   5.7379183706266E-03
(PID.TID 0000.0001) %MON forcing_fv_mean              =   5.7379183706266E-03
(PID.TID 0000.0001) %MON forcing_fv_sd                =   0.0000000000000E+00
(PID.TID 0000.0001) %MON forcing_fv_del2              =   0.0000000000000E+00
(PID.TID 0000.0001) %MON advcfl_uvel_max              =   4.7724162894512E-03
(PID.TID 0000.0001) %MON advcfl_vvel_max              =   2.8798055625602E-03
(PID.TID 0000.0001) %MON advcfl_wvel_max              =   0.0000000000000E+00
(PID.TID 0000.0001) %MON advcfl_W_hf_max              =   0.0000000000000E+00
(PID.TID 0000.0001) %MON pe_b_mean                    =  -4.5857589277748E-07
(PID.TID 0000.0001) %MON ke_max                       =   2.6832377930541E-05
(PID.TID 0000.0001) %MON ke_mean                      =   9.5347721523599E-07
(PID.TID 0000.0001) %MON ke_vol                       =   1.2831500000000E+10
(PID.TID 0000.0001) %MON vort_r_min                   =   0.0000000000000E+00
(PID.TID 0000.0001) %MON vort_r_max                   =   0.0000000000000E+00
(PID.TID 0000.0001) %MON vort_a_mean                  =   1.0000000000000E-04
(PID.TID 0000.0001) %MON vort_a_sd                    =   0.0000000000000E+00
(PID.TID 0000.0001) %MON vort_p_mean                  =   1.0000000000000E-04
(PID.TID 0000.0001) %MON vort_p_sd                    =   0.0000000000000E+00
(PID.TID 0000.0001) %MON surfExpan_theta_mean         =   0.0000000000000E+00
(PID.TID 0000.0001) %MON surfExpan_salt_mean          =   0.0000000000000E+00
(PID.TID 0000.0001) // =======================================================
(PID.TID 0000.0001) // End MONITOR dynamic field statistics
(PID.TID 0000.0001) // =======================================================
(PID.TID 0000.0001) // =======================================================
(PID.TID 0000.0001) // Begin MONITOR SEAICE statistics
(PID.TID 0000.0001) // =======================================================
(PID.TID 0000.0001) %MON seaice_tsnumber              =                     8
(PID.TID 0000.0001) %MON seaice_time_sec              =   2.8800000000000E+04
(PID.TID 0000.0001) %MON seaice_uice_max              =   0.0000000000000E+00
(PID.TID 0000.0001) %MON seaice_uice_min              =   0.0000000000000E+00
(PID.TID 0000.0001) %MON seaice_uice_mean             =   0.0000000000000E+00
(PID.TID 0000.0001) %MON seaice_uice_sd               =   0.0000000000000E+00
(PID.TID 0000.0001) %MON seaice_uice_del2             =   0.0000000000000E+00
(PID.TID 0000.0001) %MON seaice_vice_max              =   0.0000000000000E+00
(PID.TID 0000.0001) %MON seaice_vice_min              =   0.0000000000000E+00
(PID.TID 0000.0001) %MON seaice_vice_mean             =   0.0000000000000E+00
(PID.TID 0000.0001) %MON seaice_vice_sd               =   0.0000000000000E+00
(PID.TID 0000.0001) %MON seaice_vice_del2             =   0.0000000000000E+00
(PID.TID 0000.0001) %MON seaice_area_max              =   4.1055149330355E-02
(PID.TID 0000.0001) %MON seaice_area_min              =   4.1055149330355E-02
(PID.TID 0000.0001) %MON seaice_area_mean             =   4.1055149330355E-02
(PID.TID 0000.0001) %MON seaice_area_sd               =   0.0000000000000E+00
(PID.TID 0000.0001) %MON seaice_area_del2             =   0.0000000000000E+00
(PID.TID 0000.0001) %MON seaice_heff_max              =   7.8419602839892E-03
(PID.TID 0000.0001) %MON seaice_heff_min              =   7.8419602839892E-03
(PID.TID 0000.0001) %MON seaice_heff_mean             =   7.8419602839892E-03
(PID.TID 0000.0001) %MON seaice_heff_sd               =   0.0000000000000E+00
(PID.TID 0000.0001) %MON seaice_heff_del2             =   0.0000000000000E+00
(PID.TID 0000.0001) %MON seaice_hsnow_max             =   0.0000000000000E+00
(PID.TID 0000.0001) %MON seaice_hsnow_min             =   0.0000000000000E+00
(PID.TID 0000.0001) %MON seaice_hsnow_mean            =   0.0000000000000E+00
(PID.TID 0000.0001) %MON seaice_hsnow_sd              =   0.0000000000000E+00
(PID.TID 0000.0001) %MON seaice_hsnow_del2            =   0.0000000000000E+00
(PID.TID 0000.0001) %MON seaice_hsalt_max             =   6.2109832461795E+01
(PID.TID 0000.0001) %MON seaice_hsalt_min             =   6.2109832461795E+01
(PID.TID 0000.0001) %MON seaice_hsalt_mean            =   6.2109832461795E+01
(PID.TID 0000.0001) %MON seaice_hsalt_sd              =   0.0000000000000E+00
(PID.TID 0000.0001) %MON seaice_hsalt_del2            =   0.0000000000000E+00
(PID.TID 0000.0001) // =======================================================
(PID.TID 0000.0001) // End MONITOR SEAICE statistics
(PID.TID 0000.0001) // =======================================================
(PID.TID 0000.0001) // =======================================================
(PID.TID 0000.0001) // Begin MONITOR EXF statistics
(PID.TID 0000.0001) // =======================================================
(PID.TID 0000.0001) %MON exf_tsnumber                 =                     8
(PID.TID 0000.0001) %MON exf_time_sec                 =   2.8800000000000E+04
(PID.TID 0000.0001) %MON exf_ustress_max              =   5.9518311045689E-03
(PID.TID 0000.0001) %MON exf_ustress_min              =   5.9518311045689E-03
(PID.TID 0000.0001) %MON exf_ustress_mean             =   5.9518311045689E-03
(PID.TID 0000.0001) %MON exf_ustress_sd               =   0.0000000000000E+00
(PID.TID 0000.0001) %MON exf_ustress_del2             =   0.0000000000000E+00
(PID.TID 0000.0001) %MON exf_vstress_max              =   5.9518311045689E-03
(PID.TID 0000.0001) %MON exf_vstress_min              =   5.9518311045689E-03
(PID.TID 0000.0001) %MON exf_vstress_mean             =   5.9518311045689E-03
(PID.TID 0000.0001) %MON exf_vstress_sd               =   0.0000000000000E+00
(PID.TID 0000.0001) %MON exf_vstress_del2             =   0.0000000000000E+00
(PID.TID 0000.0001) %MON exf_hflux_max                =   2.3740751558123E+02
(PID.TID 0000.0001) %MON exf_hflux_min                =   2.3740751558123E+02
(PID.TID 0000.0001) %MON exf_hflux_mean               =   2.3740751558123E+02
(PID.TID 0000.0001) %MON exf_hflux_sd                 =   0.0000000000000E+00
(PID.TID 0000.0001) %MON exf_hflux_del2               =   0.0000000000000E+00
(PID.TID 0000.0001) %MON exf_sflux_max                =   2.0700580979707E-08
(PID.TID 0000.0001) %MON exf_sflux_min                =   2.0700580979707E-08
(PID.TID 0000.0001) %MON exf_sflux_mean               =   2.0700580979707E-08
(PID.TID 0000.0001) %MON exf_sflux_sd                 =   0.0000000000000E+00
(PID.TID 0000.0001) %MON exf_sflux_del2               =   0.0000000000000E+00
(PID.TID 0000.0001) %MON exf_uwind_max                =   1.0000000000000E+00
(PID.TID 0000.0001) %MON exf_uwind_min                =   1.0000000000000E+00
(PID.TID 0000.0001) %MON exf_uwind_mean               =   1.0000000000000E+00
(PID.TID 0000.0001) %MON exf_uwind_sd                 =   0.0000000000000E+00
(PID.TID 0000.0001) %MON exf_uwind_del2               =   0.0000000000000E+00
(PID.TID 0000.0001) %MON exf_vwind_max                =   1.0000000000000E+00
(PID.TID 0000.0001) %MON exf_vwind_min                =   1.0000000000000E+00
(PID.TID 0000.0001) %MON exf_vwind_mean               =   1.0000000000000E+00
(PID.TID 0000.0001) %MON exf_vwind_sd                 =   0.0000000000000E+00
(PID.TID 0000.0001) %MON exf_vwind_del2               =   0.0000000000000E+00
(PID.TID 0000.0001) %MON exf_wspeed_max               =   1.4142135623731E+00
(PID.TID 0000.0001) %MON exf_wspeed_min               =   1.4142135623731E+00
(PID.TID 0000.0001) %MON exf_wspeed_mean              =   1.4142135623731E+00
(PID.TID 0000.0001) %MON exf_wspeed_sd                =   0.0000000000000E+00
(PID.TID 0000.0001) %MON exf_wspeed_del2              =   4.0000000000000E+00
(PID.TID 0000.0001) %MON exf_atemp_max                =   2.5303627777100E+02
(PID.TID 0000.0001) %MON exf_atemp_min                =   2.5303627777100E+02
(PID.TID 0000.0001) %MON exf_atemp_mean               =   2.5303627777100E+02
(PID.TID 0000.0001) %MON exf_atemp_sd                 =   0.0000000000000E+00
(PID.TID 0000.0001) %MON exf_atemp_del2               =   5.6918481803373E+01
(PID.TID 0000.0001) %MON exf_lwflux_max               =   1.0635203348981E+02
(PID.TID 0000.0001) %MON exf_lwflux_min               =   1.0635203348981E+02
(PID.TID 0000.0001) %MON exf_lwflux_mean              =   1.0635203348981E+02
(PID.TID 0000.0001) %MON exf_lwflux_sd                =   0.0000000000000E+00
(PID.TID 0000.0001) %MON exf_lwflux_del2              =   3.0080897629448E+02
(PID.TID 0000.0001) %MON exf_swflux_max               =  -1.9699106168747E+01
(PID.TID 0000.0001) %MON exf_swflux_min               =  -1.9699106168747E+01
(PID.TID 0000.0001) %MON exf_swflux_mean              =  -1.9699106168747E+01
(PID.TID 0000.0001) %MON exf_swflux_sd                =   0.0000000000000E+00
(PID.TID 0000.0001) %MON exf_swflux_del2              =   0.0000000000000E+00
(PID.TID 0000.0001) %MON exf_evap_max                 =   2.0700580979707E-08
(PID.TID 0000.0001) %MON exf_evap_min                 =   2.0700580979707E-08
(PID.TID 0000.0001) %MON exf_evap_mean                =   2.0700580979707E-08
(PID.TID 0000.0001) %MON exf_evap_sd                  =   0.0000000000000E+00
(PID.TID 0000.0001) %MON exf_evap_del2                =   5.8550084741008E-08
(PID.TID 0000.0001) %MON exf_swdown_max               =   2.1887895743052E+01
(PID.TID 0000.0001) %MON exf_swdown_min               =   2.1887895743052E+01
(PID.TID 0000.0001) %MON exf_swdown_mean              =   2.1887895743052E+01
(PID.TID 0000.0001) %MON exf_swdown_sd                =   0.0000000000000E+00
(PID.TID 0000.0001) %MON exf_swdown_del2              =   6.1908318023265E+01
(PID.TID 0000.0001) %MON exf_lwdown_max               =   1.9139374287923E+02
(PID.TID 0000.0001) %MON exf_lwdown_min               =   1.9139374287923E+02
(PID.TID 0000.0001) %MON exf_lwdown_mean              =   1.9139374287923E+02
(PID.TID 0000.0001) %MON exf_lwdown_sd                =   0.0000000000000E+00
(PID.TID 0000.0001) %MON exf_lwdown_del2              =   5.4134325386632E+02
(PID.TID 0000.0001) // =======================================================
(PID.TID 0000.0001) // End MONITOR EXF statistics
(PID.TID 0000.0001) // =======================================================
 ph-ice B            8  -1.8993859387065617       4.60449224232379259E-002  8.17839657687662036E-003
 ph-ice C            8   564638.14265981328     
 cg2d: Sum(rhs),rhsMax =   1.00000000000000E+00  2.96382553674272E-05
(PID.TID 0000.0001)      cg2d_init_res =   4.66243296868923E-02
(PID.TID 0000.0001)      cg2d_iters(min,last) =      -1       1
(PID.TID 0000.0001)      cg2d_last_res =   0.00000000000000E+00
(PID.TID 0000.0001) // =======================================================
(PID.TID 0000.0001) // Begin MONITOR dynamic field statistics
(PID.TID 0000.0001) // =======================================================
(PID.TID 0000.0001) %MON time_tsnumber                =                     9
(PID.TID 0000.0001) %MON time_secondsf                =   3.2400000000000E+04
(PID.TID 0000.0001) %MON dynstat_eta_max              =  -7.8859686844243E-03
(PID.TID 0000.0001) %MON dynstat_eta_min              =  -7.8859686844243E-03
(PID.TID 0000.0001) %MON dynstat_eta_mean             =  -7.8859686844243E-03
(PID.TID 0000.0001) %MON dynstat_eta_sd               =   0.0000000000000E+00
(PID.TID 0000.0001) %MON dynstat_eta_del2             =   0.0000000000000E+00
(PID.TID 0000.0001) %MON dynstat_uvel_max             =   5.8347761858203E-03
(PID.TID 0000.0001) %MON dynstat_uvel_min             =  -1.5872861893254E-04
(PID.TID 0000.0001) %MON dynstat_uvel_mean            =   1.7754708643994E-04
(PID.TID 0000.0001) %MON dynstat_uvel_sd              =   8.8766892410070E-04
(PID.TID 0000.0001) %MON dynstat_uvel_del2            =   0.0000000000000E+00
(PID.TID 0000.0001) %MON dynstat_vvel_max             =  -3.7626802437605E-68
(PID.TID 0000.0001) %MON dynstat_vvel_min             =  -4.6002020301128E-03
(PID.TID 0000.0001) %MON dynstat_vvel_mean            =  -2.5362333965129E-04
(PID.TID 0000.0001) %MON dynstat_vvel_sd              =   9.7540763088686E-04
(PID.TID 0000.0001) %MON dynstat_vvel_del2            =   0.0000000000000E+00
(PID.TID 0000.0001) %MON dynstat_wvel_max             =  -0.0000000000000E+00
(PID.TID 0000.0001) %MON dynstat_wvel_min             =  -0.0000000000000E+00
(PID.TID 0000.0001) %MON dynstat_wvel_mean            =   0.0000000000000E+00
(PID.TID 0000.0001) %MON dynstat_wvel_sd              =   0.0000000000000E+00
(PID.TID 0000.0001) %MON dynstat_wvel_del2            =   0.0000000000000E+00
(PID.TID 0000.0001) %MON dynstat_theta_max            =   4.9999999999525E-01
(PID.TID 0000.0001) %MON dynstat_theta_min            =  -1.8965939043405E+00
(PID.TID 0000.0001) %MON dynstat_theta_mean           =  -4.2637256820971E-01
(PID.TID 0000.0001) %MON dynstat_theta_sd             =   8.7986162961716E-01
(PID.TID 0000.0001) %MON dynstat_theta_del2           =   0.0000000000000E+00
(PID.TID 0000.0001) %MON dynstat_salt_max             =   3.4799999999998E+01
(PID.TID 0000.0001) %MON dynstat_salt_min             =   2.9020055619834E+01
(PID.TID 0000.0001) %MON dynstat_salt_mean            =   3.3593367331586E+01
(PID.TID 0000.0001) %MON dynstat_salt_sd              =   1.6842537540028E+00
(PID.TID 0000.0001) %MON dynstat_salt_del2            =   0.0000000000000E+00
(PID.TID 0000.0001) %MON dynstat_sst_max              =  -1.8965939043405E+00
(PID.TID 0000.0001) %MON dynstat_sst_min              =  -1.8965939043405E+00
(PID.TID 0000.0001) %MON dynstat_sst_mean             =  -1.8965939043405E+00
(PID.TID 0000.0001) %MON dynstat_sst_sd               =   2.2204460492503E-16
(PID.TID 0000.0001) %MON dynstat_sst_del2             =   0.0000000000000E+00
(PID.TID 0000.0001) %MON dynstat_sss_max              =   2.9020055619834E+01
(PID.TID 0000.0001) %MON dynstat_sss_min              =   2.9020055619834E+01
(PID.TID 0000.0001) %MON dynstat_sss_mean             =   2.9020055619834E+01
(PID.TID 0000.0001) %MON dynstat_sss_sd               =   0.0000000000000E+00
(PID.TID 0000.0001) %MON dynstat_sss_del2             =   0.0000000000000E+00
(PID.TID 0000.0001) %MON forcing_qnet_max             =   2.0450323665825E+02
(PID.TID 0000.0001) %MON forcing_qnet_min             =   2.0450323665825E+02
(PID.TID 0000.0001) %MON forcing_qnet_mean            =   2.0450323665825E+02
(PID.TID 0000.0001) %MON forcing_qnet_sd              =   0.0000000000000E+00
(PID.TID 0000.0001) %MON forcing_qnet_del2            =   0.0000000000000E+00
(PID.TID 0000.0001) %MON forcing_qsw_max              =  -1.8947330230581E+01
(PID.TID 0000.0001) %MON forcing_qsw_min              =  -1.8947330230581E+01
(PID.TID 0000.0001) %MON forcing_qsw_mean             =  -1.8947330230581E+01
(PID.TID 0000.0001) %MON forcing_qsw_sd               =   0.0000000000000E+00
(PID.TID 0000.0001) %MON forcing_qsw_del2             =   0.0000000000000E+00
(PID.TID 0000.0001) %MON forcing_empmr_max            =   1.0489036387313E-04
(PID.TID 0000.0001) %MON forcing_empmr_min            =   1.0489036387313E-04
(PID.TID 0000.0001) %MON forcing_empmr_mean           =   1.0489036387313E-04
(PID.TID 0000.0001) %MON forcing_empmr_sd             =   0.0000000000000E+00
(PID.TID 0000.0001) %MON forcing_empmr_del2           =   0.0000000000000E+00
(PID.TID 0000.0001) %MON forcing_fu_max               =   5.7074777897817E-03
(PID.TID 0000.0001) %MON forcing_fu_min               =   5.7074777897817E-03
(PID.TID 0000.0001) %MON forcing_fu_mean              =   5.7074777897817E-03
(PID.TID 0000.0001) %MON forcing_fu_sd                =   0.0000000000000E+00
(PID.TID 0000.0001) %MON forcing_fu_del2              =   0.0000000000000E+00
(PID.TID 0000.0001) %MON forcing_fv_max               =   5.7074777897817E-03
(PID.TID 0000.0001) %MON forcing_fv_min               =   5.7074777897817E-03
(PID.TID 0000.0001) %MON forcing_fv_mean              =   5.7074777897817E-03
(PID.TID 0000.0001) %MON forcing_fv_sd                =   0.0000000000000E+00
(PID.TID 0000.0001) %MON forcing_fv_del2              =   0.0000000000000E+00
(PID.TID 0000.0001) %MON advcfl_uvel_max              =   4.2010388537906E-03
(PID.TID 0000.0001) %MON advcfl_vvel_max              =   3.3121454616812E-03
(PID.TID 0000.0001) %MON advcfl_wvel_max              =   0.0000000000000E+00
(PID.TID 0000.0001) %MON advcfl_W_hf_max              =   0.0000000000000E+00
(PID.TID 0000.0001) %MON pe_b_mean                    =  -4.9823539878411E-07
(PID.TID 0000.0001) %MON ke_max                       =   2.4201566473858E-05
(PID.TID 0000.0001) %MON ke_mean                      =   9.1761196576281E-07
(PID.TID 0000.0001) %MON ke_vol                       =   1.2831500000000E+10
(PID.TID 0000.0001) %MON vort_r_min                   =   0.0000000000000E+00
(PID.TID 0000.0001) %MON vort_r_max                   =   0.0000000000000E+00
(PID.TID 0000.0001) %MON vort_a_mean                  =   1.0000000000000E-04
(PID.TID 0000.0001) %MON vort_a_sd                    =   0.0000000000000E+00
(PID.TID 0000.0001) %MON vort_p_mean                  =   1.0000000000000E-04
(PID.TID 0000.0001) %MON vort_p_sd                    =   0.0000000000000E+00
(PID.TID 0000.0001) %MON surfExpan_theta_mean         =   0.0000000000000E+00
(PID.TID 0000.0001) %MON surfExpan_salt_mean          =   0.0000000000000E+00
(PID.TID 0000.0001) // =======================================================
(PID.TID 0000.0001) // End MONITOR dynamic field statistics
(PID.TID 0000.0001) // =======================================================
(PID.TID 0000.0001) // =======================================================
(PID.TID 0000.0001) // Begin MONITOR SEAICE statistics
(PID.TID 0000.0001) // =======================================================
(PID.TID 0000.0001) %MON seaice_tsnumber              =                     9
(PID.TID 0000.0001) %MON seaice_time_sec              =   3.2400000000000E+04
(PID.TID 0000.0001) %MON seaice_uice_max              =   0.0000000000000E+00
(PID.TID 0000.0001) %MON seaice_uice_min              =   0.0000000000000E+00
(PID.TID 0000.0001) %MON seaice_uice_mean             =   0.0000000000000E+00
(PID.TID 0000.0001) %MON seaice_uice_sd               =   0.0000000000000E+00
(PID.TID 0000.0001) %MON seaice_uice_del2             =   0.0000000000000E+00
(PID.TID 0000.0001) %MON seaice_vice_max              =   0.0000000000000E+00
(PID.TID 0000.0001) %MON seaice_vice_min              =   0.0000000000000E+00
(PID.TID 0000.0001) %MON seaice_vice_mean             =   0.0000000000000E+00
(PID.TID 0000.0001) %MON seaice_vice_sd               =   0.0000000000000E+00
(PID.TID 0000.0001) %MON seaice_vice_del2             =   0.0000000000000E+00
(PID.TID 0000.0001) %MON seaice_area_max              =   4.6044922423238E-02
(PID.TID 0000.0001) %MON seaice_area_min              =   4.6044922423238E-02
(PID.TID 0000.0001) %MON seaice_area_mean             =   4.6044922423238E-02
(PID.TID 0000.0001) %MON seaice_area_sd               =   0.0000000000000E+00
(PID.TID 0000.0001) %MON seaice_area_del2             =   0.0000000000000E+00
(PID.TID 0000.0001) %MON seaice_heff_max              =   8.1783965768766E-03
(PID.TID 0000.0001) %MON seaice_heff_min              =   8.1783965768766E-03
(PID.TID 0000.0001) %MON seaice_heff_mean             =   8.1783965768766E-03
(PID.TID 0000.0001) %MON seaice_heff_sd               =   0.0000000000000E+00
(PID.TID 0000.0001) %MON seaice_heff_del2             =   0.0000000000000E+00
(PID.TID 0000.0001) %MON seaice_hsnow_max             =   0.0000000000000E+00
(PID.TID 0000.0001) %MON seaice_hsnow_min             =   0.0000000000000E+00
(PID.TID 0000.0001) %MON seaice_hsnow_mean            =   0.0000000000000E+00
(PID.TID 0000.0001) %MON seaice_hsnow_sd              =   0.0000000000000E+00
(PID.TID 0000.0001) %MON seaice_hsnow_del2            =   0.0000000000000E+00
(PID.TID 0000.0001) %MON seaice_hsalt_max             =   6.4775145680471E+01
(PID.TID 0000.0001) %MON seaice_hsalt_min             =   6.4775145680471E+01
(PID.TID 0000.0001) %MON seaice_hsalt_mean            =   6.4775145680471E+01
(PID.TID 0000.0001) %MON seaice_hsalt_sd              =   0.0000000000000E+00
(PID.TID 0000.0001) %MON seaice_hsalt_del2            =   0.0000000000000E+00
(PID.TID 0000.0001) // =======================================================
(PID.TID 0000.0001) // End MONITOR SEAICE statistics
(PID.TID 0000.0001) // =======================================================
(PID.TID 0000.0001) // =======================================================
(PID.TID 0000.0001) // Begin MONITOR EXF statistics
(PID.TID 0000.0001) // =======================================================
(PID.TID 0000.0001) %MON exf_tsnumber                 =                     9
(PID.TID 0000.0001) %MON exf_time_sec                 =   3.2400000000000E+04
(PID.TID 0000.0001) %MON exf_ustress_max              =   5.9517503898165E-03
(PID.TID 0000.0001) %MON exf_ustress_min              =   5.9517503898165E-03
(PID.TID 0000.0001) %MON exf_ustress_mean             =   5.9517503898165E-03
(PID.TID 0000.0001) %MON exf_ustress_sd               =   0.0000000000000E+00
(PID.TID 0000.0001) %MON exf_ustress_del2             =   0.0000000000000E+00
(PID.TID 0000.0001) %MON exf_vstress_max              =   5.9517503898165E-03
(PID.TID 0000.0001) %MON exf_vstress_min              =   5.9517503898165E-03
(PID.TID 0000.0001) %MON exf_vstress_mean             =   5.9517503898165E-03
(PID.TID 0000.0001) %MON exf_vstress_sd               =   0.0000000000000E+00
(PID.TID 0000.0001) %MON exf_vstress_del2             =   0.0000000000000E+00
(PID.TID 0000.0001) %MON exf_hflux_max                =   2.3735381919202E+02
(PID.TID 0000.0001) %MON exf_hflux_min                =   2.3735381919202E+02
(PID.TID 0000.0001) %MON exf_hflux_mean               =   2.3735381919202E+02
(PID.TID 0000.0001) %MON exf_hflux_sd                 =   0.0000000000000E+00
(PID.TID 0000.0001) %MON exf_hflux_del2               =   0.0000000000000E+00
(PID.TID 0000.0001) %MON exf_sflux_max                =   2.0704180283466E-08
(PID.TID 0000.0001) %MON exf_sflux_min                =   2.0704180283466E-08
(PID.TID 0000.0001) %MON exf_sflux_mean               =   2.0704180283466E-08
(PID.TID 0000.0001) %MON exf_sflux_sd                 =   0.0000000000000E+00
(PID.TID 0000.0001) %MON exf_sflux_del2               =   0.0000000000000E+00
(PID.TID 0000.0001) %MON exf_uwind_max                =   1.0000000000000E+00
(PID.TID 0000.0001) %MON exf_uwind_min                =   1.0000000000000E+00
(PID.TID 0000.0001) %MON exf_uwind_mean               =   1.0000000000000E+00
(PID.TID 0000.0001) %MON exf_uwind_sd                 =   0.0000000000000E+00
(PID.TID 0000.0001) %MON exf_uwind_del2               =   0.0000000000000E+00
(PID.TID 0000.0001) %MON exf_vwind_max                =   1.0000000000000E+00
(PID.TID 0000.0001) %MON exf_vwind_min                =   1.0000000000000E+00
(PID.TID 0000.0001) %MON exf_vwind_mean               =   1.0000000000000E+00
(PID.TID 0000.0001) %MON exf_vwind_sd                 =   0.0000000000000E+00
(PID.TID 0000.0001) %MON exf_vwind_del2               =   0.0000000000000E+00
(PID.TID 0000.0001) %MON exf_wspeed_max               =   1.4142135623731E+00
(PID.TID 0000.0001) %MON exf_wspeed_min               =   1.4142135623731E+00
(PID.TID 0000.0001) %MON exf_wspeed_mean              =   1.4142135623731E+00
(PID.TID 0000.0001) %MON exf_wspeed_sd                =   0.0000000000000E+00
(PID.TID 0000.0001) %MON exf_wspeed_del2              =   4.0000000000000E+00
(PID.TID 0000.0001) %MON exf_atemp_max                =   2.5304067611694E+02
(PID.TID 0000.0001) %MON exf_atemp_min                =   2.5304067611694E+02
(PID.TID 0000.0001) %MON exf_atemp_mean               =   2.5304067611694E+02
(PID.TID 0000.0001) %MON exf_atemp_sd                 =   0.0000000000000E+00
(PID.TID 0000.0001) %MON exf_atemp_del2               =   5.6906041402391E+01
(PID.TID 0000.0001) %MON exf_lwflux_max               =   1.0633473387806E+02
(PID.TID 0000.0001) %MON exf_lwflux_min               =   1.0633473387806E+02
(PID.TID 0000.0001) %MON exf_lwflux_mean              =   1.0633473387806E+02
(PID.TID 0000.0001) %MON exf_lwflux_sd                =   0.0000000000000E+00
(PID.TID 0000.0001) %MON exf_lwflux_del2              =   3.0076004560338E+02
(PID.TID 0000.0001) %MON exf_swflux_max               =  -1.9733900713921E+01
(PID.TID 0000.0001) %MON exf_swflux_min               =  -1.9733900713921E+01
(PID.TID 0000.0001) %MON exf_swflux_mean              =  -1.9733900713921E+01
(PID.TID 0000.0001) %MON exf_swflux_sd                =   0.0000000000000E+00
(PID.TID 0000.0001) %MON exf_swflux_del2              =   0.0000000000000E+00
(PID.TID 0000.0001) %MON exf_evap_max                 =   2.0704180283466E-08
(PID.TID 0000.0001) %MON exf_evap_min                 =   2.0704180283466E-08
(PID.TID 0000.0001) %MON exf_evap_mean                =   2.0704180283466E-08
(PID.TID 0000.0001) %MON exf_evap_sd                  =   0.0000000000000E+00
(PID.TID 0000.0001) %MON exf_evap_del2                =   5.8560265109391E-08
(PID.TID 0000.0001) %MON exf_swdown_max               =   2.1926556348801E+01
(PID.TID 0000.0001) %MON exf_swdown_min               =   2.1926556348801E+01
(PID.TID 0000.0001) %MON exf_swdown_mean              =   2.1926556348801E+01
(PID.TID 0000.0001) %MON exf_swdown_sd                =   0.0000000000000E+00
(PID.TID 0000.0001) %MON exf_swdown_del2              =   6.2017666729224E+01
(PID.TID 0000.0001) %MON exf_lwdown_max               =   1.9142330169678E+02
(PID.TID 0000.0001) %MON exf_lwdown_min               =   1.9142330169678E+02
(PID.TID 0000.0001) %MON exf_lwdown_mean              =   1.9142330169678E+02
(PID.TID 0000.0001) %MON exf_lwdown_sd                =   0.0000000000000E+00
(PID.TID 0000.0001) %MON exf_lwdown_del2              =   5.4142685882764E+02
(PID.TID 0000.0001) // =======================================================
(PID.TID 0000.0001) // End MONITOR EXF statistics
(PID.TID 0000.0001) // =======================================================
 ph-ice B            9  -1.8965939043404840       5.09203501414473847E-002  8.40585505262450919E-003
 ph-ice C            9   691935.48197622853     
 cg2d: Sum(rhs),rhsMax =   1.00000000000000E+00  3.06558874204468E-05
(PID.TID 0000.0001)      cg2d_init_res =   3.31953219647403E-02
(PID.TID 0000.0001)      cg2d_iters(min,last) =      -1       1
(PID.TID 0000.0001)      cg2d_last_res =   0.00000000000000E+00
(PID.TID 0000.0001) // =======================================================
(PID.TID 0000.0001) // Begin MONITOR dynamic field statistics
(PID.TID 0000.0001) // =======================================================
(PID.TID 0000.0001) %MON time_tsnumber                =                    10
(PID.TID 0000.0001) %MON time_secondsf                =   3.6000000000000E+04
(PID.TID 0000.0001) %MON dynstat_eta_max              =  -8.1567340990220E-03
(PID.TID 0000.0001) %MON dynstat_eta_min              =  -8.1567340990220E-03
(PID.TID 0000.0001) %MON dynstat_eta_mean             =  -8.1567340990220E-03
(PID.TID 0000.0001) %MON dynstat_eta_sd               =   0.0000000000000E+00
(PID.TID 0000.0001) %MON dynstat_eta_del2             =   0.0000000000000E+00
(PID.TID 0000.0001) %MON dynstat_uvel_max             =   5.3315128316617E-03
(PID.TID 0000.0001) %MON dynstat_uvel_min             =  -7.2849223475131E-04
(PID.TID 0000.0001) %MON dynstat_uvel_mean            =   1.1709522033792E-04
(PID.TID 0000.0001) %MON dynstat_uvel_sd              =   7.8573374568180E-04
(PID.TID 0000.0001) %MON dynstat_uvel_del2            =   0.0000000000000E+00
(PID.TID 0000.0001) %MON dynstat_vvel_max             =   2.8788761365576E-24
(PID.TID 0000.0001) %MON dynstat_vvel_min             =  -5.0678391124063E-03
(PID.TID 0000.0001) %MON dynstat_vvel_mean            =  -2.6789873042561E-04
(PID.TID 0000.0001) %MON dynstat_vvel_sd              =   1.0415592970203E-03
(PID.TID 0000.0001) %MON dynstat_vvel_del2            =   0.0000000000000E+00
(PID.TID 0000.0001) %MON dynstat_wvel_max             =  -0.0000000000000E+00
(PID.TID 0000.0001) %MON dynstat_wvel_min             =  -0.0000000000000E+00
(PID.TID 0000.0001) %MON dynstat_wvel_mean            =   0.0000000000000E+00
(PID.TID 0000.0001) %MON dynstat_wvel_sd              =   0.0000000000000E+00
(PID.TID 0000.0001) %MON dynstat_wvel_del2            =   0.0000000000000E+00
(PID.TID 0000.0001) %MON dynstat_theta_max            =   4.9999999999478E-01
(PID.TID 0000.0001) %MON dynstat_theta_min            =  -1.9024886132874E+00
(PID.TID 0000.0001) %MON dynstat_theta_mean           =  -4.2673767848312E-01
(PID.TID 0000.0001) %MON dynstat_theta_sd             =   8.8047167765476E-01
(PID.TID 0000.0001) %MON dynstat_theta_del2           =   0.0000000000000E+00
(PID.TID 0000.0001) %MON dynstat_salt_max             =   3.4799999999998E+01
(PID.TID 0000.0001) %MON dynstat_salt_min             =   2.9020525685047E+01
(PID.TID 0000.0001) %MON dynstat_salt_mean            =   3.3593379222185E+01
(PID.TID 0000.0001) %MON dynstat_salt_sd              =   1.6842212227608E+00
(PID.TID 0000.0001) %MON dynstat_salt_del2            =   0.0000000000000E+00
(PID.TID 0000.0001) %MON dynstat_sst_max              =  -1.8999039688122E+00
(PID.TID 0000.0001) %MON dynstat_sst_min              =  -1.8999039688122E+00
(PID.TID 0000.0001) %MON dynstat_sst_mean             =  -1.8999039688122E+00
(PID.TID 0000.0001) %MON dynstat_sst_sd               =   0.0000000000000E+00
(PID.TID 0000.0001) %MON dynstat_sst_del2             =   0.0000000000000E+00
(PID.TID 0000.0001) %MON dynstat_sss_max              =   2.9020525685047E+01
(PID.TID 0000.0001) %MON dynstat_sss_min              =   2.9020525685047E+01
(PID.TID 0000.0001) %MON dynstat_sss_mean             =   2.9020525685047E+01
(PID.TID 0000.0001) %MON dynstat_sss_sd               =   0.0000000000000E+00
(PID.TID 0000.0001) %MON dynstat_sss_del2             =   0.0000000000000E+00
(PID.TID 0000.0001) %MON forcing_qnet_max             =   2.1309178631902E+02
(PID.TID 0000.0001) %MON forcing_qnet_min             =   2.1309178631902E+02
(PID.TID 0000.0001) %MON forcing_qnet_mean            =   2.1309178631902E+02
(PID.TID 0000.0001) %MON forcing_qnet_sd              =   0.0000000000000E+00
(PID.TID 0000.0001) %MON forcing_qnet_del2            =   0.0000000000000E+00
(PID.TID 0000.0001) %MON forcing_qsw_max              =  -1.8889191654134E+01
(PID.TID 0000.0001) %MON forcing_qsw_min              =  -1.8889191654134E+01
(PID.TID 0000.0001) %MON forcing_qsw_mean             =  -1.8889191654134E+01
(PID.TID 0000.0001) %MON forcing_qsw_sd               =   0.0000000000000E+00
(PID.TID 0000.0001) %MON forcing_qsw_del2             =   0.0000000000000E+00
(PID.TID 0000.0001) %MON forcing_empmr_max            =   7.7243355773167E-05
(PID.TID 0000.0001) %MON forcing_empmr_min            =   7.7243355773167E-05
(PID.TID 0000.0001) %MON forcing_empmr_mean           =   7.7243355773167E-05
(PID.TID 0000.0001) %MON forcing_empmr_sd             =   0.0000000000000E+00
(PID.TID 0000.0001) %MON forcing_empmr_del2           =   0.0000000000000E+00
(PID.TID 0000.0001) %MON forcing_fu_max               =   5.6777025048350E-03
(PID.TID 0000.0001) %MON forcing_fu_min               =   5.6777025048350E-03
(PID.TID 0000.0001) %MON forcing_fu_mean              =   5.6777025048350E-03
(PID.TID 0000.0001) %MON forcing_fu_sd                =   0.0000000000000E+00
(PID.TID 0000.0001) %MON forcing_fu_del2              =   0.0000000000000E+00
(PID.TID 0000.0001) %MON forcing_fv_max               =   5.6777025048350E-03
(PID.TID 0000.0001) %MON forcing_fv_min               =   5.6777025048350E-03
(PID.TID 0000.0001) %MON forcing_fv_mean              =   5.6777025048350E-03
(PID.TID 0000.0001) %MON forcing_fv_sd                =   0.0000000000000E+00
(PID.TID 0000.0001) %MON forcing_fv_del2              =   0.0000000000000E+00
(PID.TID 0000.0001) %MON advcfl_uvel_max              =   3.8386892387964E-03
(PID.TID 0000.0001) %MON advcfl_vvel_max              =   3.6488441609326E-03
(PID.TID 0000.0001) %MON advcfl_wvel_max              =   0.0000000000000E+00
(PID.TID 0000.0001) %MON advcfl_W_hf_max              =   0.0000000000000E+00
(PID.TID 0000.0001) %MON pe_b_mean                    =  -5.2566306156348E-07
(PID.TID 0000.0001) %MON ke_max                       =   2.2309978894718E-05
(PID.TID 0000.0001) %MON ke_mean                      =   8.9385215435114E-07
(PID.TID 0000.0001) %MON ke_vol                       =   1.2831500000000E+10
(PID.TID 0000.0001) %MON vort_r_min                   =   0.0000000000000E+00
(PID.TID 0000.0001) %MON vort_r_max                   =   0.0000000000000E+00
(PID.TID 0000.0001) %MON vort_a_mean                  =   1.0000000000000E-04
(PID.TID 0000.0001) %MON vort_a_sd                    =   0.0000000000000E+00
(PID.TID 0000.0001) %MON vort_p_mean                  =   1.0000000000000E-04
(PID.TID 0000.0001) %MON vort_p_sd                    =   0.0000000000000E+00
(PID.TID 0000.0001) %MON surfExpan_theta_mean         =   0.0000000000000E+00
(PID.TID 0000.0001) %MON surfExpan_salt_mean          =   0.0000000000000E+00
(PID.TID 0000.0001) // =======================================================
(PID.TID 0000.0001) // End MONITOR dynamic field statistics
(PID.TID 0000.0001) // =======================================================
(PID.TID 0000.0001) // =======================================================
(PID.TID 0000.0001) // Begin MONITOR SEAICE statistics
(PID.TID 0000.0001) // =======================================================
(PID.TID 0000.0001) %MON seaice_tsnumber              =                    10
(PID.TID 0000.0001) %MON seaice_time_sec              =   3.6000000000000E+04
(PID.TID 0000.0001) %MON seaice_uice_max              =   0.0000000000000E+00
(PID.TID 0000.0001) %MON seaice_uice_min              =   0.0000000000000E+00
(PID.TID 0000.0001) %MON seaice_uice_mean             =   0.0000000000000E+00
(PID.TID 0000.0001) %MON seaice_uice_sd               =   0.0000000000000E+00
(PID.TID 0000.0001) %MON seaice_uice_del2             =   0.0000000000000E+00
(PID.TID 0000.0001) %MON seaice_vice_max              =   0.0000000000000E+00
(PID.TID 0000.0001) %MON seaice_vice_min              =   0.0000000000000E+00
(PID.TID 0000.0001) %MON seaice_vice_mean             =   0.0000000000000E+00
(PID.TID 0000.0001) %MON seaice_vice_sd               =   0.0000000000000E+00
(PID.TID 0000.0001) %MON seaice_vice_del2             =   0.0000000000000E+00
(PID.TID 0000.0001) %MON seaice_area_max              =   5.0920350141447E-02
(PID.TID 0000.0001) %MON seaice_area_min              =   5.0920350141447E-02
(PID.TID 0000.0001) %MON seaice_area_mean             =   5.0920350141447E-02
(PID.TID 0000.0001) %MON seaice_area_sd               =   0.0000000000000E+00
(PID.TID 0000.0001) %MON seaice_area_del2             =   0.0000000000000E+00
(PID.TID 0000.0001) %MON seaice_heff_max              =   8.4058550526245E-03
(PID.TID 0000.0001) %MON seaice_heff_min              =   8.4058550526245E-03
(PID.TID 0000.0001) %MON seaice_heff_mean             =   8.4058550526245E-03
(PID.TID 0000.0001) %MON seaice_heff_sd               =   0.0000000000000E+00
(PID.TID 0000.0001) %MON seaice_heff_del2             =   0.0000000000000E+00
(PID.TID 0000.0001) %MON seaice_hsnow_max             =   0.0000000000000E+00
(PID.TID 0000.0001) %MON seaice_hsnow_min             =   0.0000000000000E+00
(PID.TID 0000.0001) %MON seaice_hsnow_mean            =   0.0000000000000E+00
(PID.TID 0000.0001) %MON seaice_hsnow_sd              =   0.0000000000000E+00
(PID.TID 0000.0001) %MON seaice_hsnow_del2            =   0.0000000000000E+00
(PID.TID 0000.0001) %MON seaice_hsalt_max             =   6.6577179810023E+01
(PID.TID 0000.0001) %MON seaice_hsalt_min             =   6.6577179810023E+01
(PID.TID 0000.0001) %MON seaice_hsalt_mean            =   6.6577179810023E+01
(PID.TID 0000.0001) %MON seaice_hsalt_sd              =   0.0000000000000E+00
(PID.TID 0000.0001) %MON seaice_hsalt_del2            =   0.0000000000000E+00
(PID.TID 0000.0001) // =======================================================
(PID.TID 0000.0001) // End MONITOR SEAICE statistics
(PID.TID 0000.0001) // =======================================================
(PID.TID 0000.0001) %CHECKPOINT        10 ckptA
(PID.TID 0000.0001) ph-cost call cost_theta0
(PID.TID 0000.0001) ph-cost call cost_salt0
(PID.TID 0000.0001) ph-cost call cost_theta
(PID.TID 0000.0001) ph-cost call cost_salt
(PID.TID 0000.0001) ph-cost call cost_smrarea
  SICD cost smrarea/sst/sss    0.0000000000000000        0.0000000000000000        0.0000000000000000     
  SICD num points smrarea/sst/sss    0.0000000000000000        0.0000000000000000        0.0000000000000000     
 --> f_ice     = 0.691935481976229D+06
 --> f_smrarea = 0.000000000000000D+00
 --> f_smrarea = 0.000000000000000D+00
 --> f_smrarea = 0.000000000000000D+00
 --> f_temp    = 0.205317436382152D-01
 --> f_salt    = 0.270385037611134D-02
 --> f_temp0   = 0.924200717024491D-14
 --> f_salt0   = 0.000000000000000D+00
 --> f_temp0smoo = 0.000000000000000D+00
 --> f_salt0smoo = 0.000000000000000D+00
 --> f_etan0   = 0.000000000000000D+00
 --> f_uvel0   = 0.000000000000000D+00
 --> f_vvel0   = 0.000000000000000D+00
 --> f_sst     = 0.000000000000000D+00
 --> f_tmi     = 0.000000000000000D+00
 --> f_sss     = 0.000000000000000D+00
 --> f_bp      = 0.000000000000000D+00
 --> f_ies      = 0.000000000000000D+00
 --> f_ssh       = 0.000000000000000D+00
 --> f_tp        = 0.000000000000000D+00
 --> f_ers       = 0.000000000000000D+00
 --> f_gfo       = 0.000000000000000D+00
 --> f_tauu    = 0.000000000000000D+00
 --> f_tauum   = 0.000000000000000D+00
 --> f_tauusmoo = 0.000000000000000D+00
 --> f_tauv    = 0.000000000000000D+00
 --> f_tauvm   = 0.000000000000000D+00
 --> f_tauvsmoo = 0.000000000000000D+00
 --> f_hflux   = 0.000000000000000D+00
 --> f_hfluxmm = 0.000000000000000D+00
 --> f_hfluxsmoo = 0.000000000000000D+00
 --> f_sflux   = 0.000000000000000D+00
 --> f_sfluxmm = 0.000000000000000D+00
 --> f_sfluxsmoo = 0.000000000000000D+00
 --> f_uwind     = 0.000000000000000D+00
 --> f_vwind     = 0.000000000000000D+00
 --> f_atemp     = 0.000000000000000D+00
 --> f_aqh     = 0.000000000000000D+00
 --> f_precip  = 0.000000000000000D+00
 --> f_swflux  = 0.000000000000000D+00
 --> f_swdown  = 0.000000000000000D+00
 --> f_uwindm     = 0.000000000000000D+00
 --> f_vwindm     = 0.000000000000000D+00
 --> f_atempm     = 0.000000000000000D+00
 --> f_aqhm     = 0.000000000000000D+00
 --> f_precipm  = 0.000000000000000D+00
 --> f_swfluxm  = 0.000000000000000D+00
 --> f_swdownm  = 0.000000000000000D+00
 --> f_uwindsmoo     = 0.000000000000000D+00
 --> f_vwindsmoo     = 0.000000000000000D+00
 --> f_atempsmoo     = 0.000000000000000D+00
 --> f_aqhsmoo     = 0.000000000000000D+00
 --> f_precipsmoo  = 0.000000000000000D+00
 --> f_swfluxsmoo  = 0.000000000000000D+00
 --> f_swdownsmoo  = 0.000000000000000D+00
 --> f_atl     = 0.000000000000000D+00
 --> f_ctdt    = 0.000000000000000D+00
 --> f_ctds    = 0.000000000000000D+00
 --> f_ctdtclim= 0.000000000000000D+00
 --> f_ctdsclim= 0.000000000000000D+00
 --> f_xbt     = 0.000000000000000D+00
 --> f_argot   = 0.000000000000000D+00
 --> f_argos   = 0.000000000000000D+00
 --> f_drifter   = 0.000000000000000D+00
 --> f_tdrift  = 0.000000000000000D+00
 --> f_sdrift  = 0.000000000000000D+00
 --> f_wdrift  = 0.000000000000000D+00
 --> f_scatx   = 0.000000000000000D+00
 --> f_scaty   = 0.000000000000000D+00
 --> f_scatxm  = 0.000000000000000D+00
 --> f_scatym  = 0.000000000000000D+00
 --> f_obcsn   = 0.000000000000000D+00
 --> f_obcss   = 0.000000000000000D+00
 --> f_obcsw   = 0.000000000000000D+00
 --> f_obcse   = 0.000000000000000D+00
 --> f_ageos   = 0.000000000000000D+00
 --> f_curmtr  = 0.000000000000000D+00
 --> f_kapgm   = 0.000000000000000D+00
 --> f_kapredi   = 0.000000000000000D+00
 --> f_diffkr  = 0.000000000000000D+00
 --> f_eddytau = 0.000000000000000D+00
 --> f_bottomdrag = 0.000000000000000D+00
 --> f_hfluxmm2           = 0.000000000000000D+00
 --> f_sfluxmm2           = 0.000000000000000D+00
 --> f_transp             = 0.000000000000000D+00
 --> objf_hmean           = 0.000000000000000D+00
 --> fc               = 0.691935481976229D+06
 ph-check fcpertplus =    691935.48197622853     
 ph-check fcpertminus =    691935.67110343161     
(PID.TID 0000.0001) 
(PID.TID 0000.0001)  cal_TimeStamp: iter =          0 time =  0.00000000E+00
(PID.TID 0000.0001)                 date =   19790101           0
(PID.TID 0000.0001) 
(PID.TID 0000.0001) INI_CG2D: CG2D normalisation factor =  1.9483302809492266E-03
(PID.TID 0000.0001) 
(PID.TID 0000.0001) Start initial hydrostatic pressure computation
(PID.TID 0000.0001) Pressure is predetermined for buoyancyRelation OCEANIC
(PID.TID 0000.0001) 
(PID.TID 0000.0001) // =======================================================
(PID.TID 0000.0001) // Model current state
(PID.TID 0000.0001) // =======================================================
(PID.TID 0000.0001) 
 ph-ice B            0  -1.9300001000000000       3.19163316025461875E-003  1.59581658012730937E-003
 ph-ice C            0   7978.8612656013920     
(PID.TID 0000.0001) SOLVE_FOR_PRESSURE: putPmEinXvector =    F
 cg2d: Sum(rhs),rhsMax =   1.00000000000000E+00  5.58646773255263E-06
 ph-ice B            1  -1.9277414408707940       8.88745479790586587E-003  3.09504738261979053E-003
 ph-ice C            1   30196.881093148630     
 cg2d: Sum(rhs),rhsMax =   1.00000000000000E+00  1.08504538461901E-05
 ph-ice B            2  -1.9227439479477524       1.45024562660033551E-002  4.38366677446355713E-003
 ph-ice C            2   66452.014671113197     
 cg2d: Sum(rhs),rhsMax =   1.00000000000000E+00  1.54116097157222E-05
 ph-ice B            3  -1.9169503125699461       2.00243276331382239E-002  5.43053119441968060E-003
 ph-ice C            3   116511.44321427701     
 cg2d: Sum(rhs),rhsMax =   1.00000000000000E+00  1.91662597110119E-05
 ph-ice B            4  -1.9115569911182138       2.54432378029155713E-002  6.25461778570529127E-003
 ph-ice C            4   180117.77087913081     
 cg2d: Sum(rhs),rhsMax =   1.00000000000000E+00  2.21776167511198E-05
 ph-ice B            5  -1.9071999379290450       3.07544819962132891E-002  6.90084902294195793E-003
 ph-ice C            5   257001.84020107175     
 cg2d: Sum(rhs),rhsMax =   1.00000000000000E+00  2.45952857257154E-05
 ph-ice B            6  -1.9040029359238895       3.59579780101511662E-002  7.41854802332306881E-003
 ph-ice C            6   346894.28821400489     
 cg2d: Sum(rhs),rhsMax =   1.00000000000000E+00  2.65835254993465E-05
 ph-ice B            7  -1.9016149151828334       4.10551634169866939E-002  7.84195778720778863E-003
 ph-ice C            7   449529.34578265029     
 cg2d: Sum(rhs),rhsMax =   1.00000000000000E+00  2.82563832342637E-05
 ph-ice B            8  -1.8993859142232825       4.60449360650635325E-002  8.17839310064095645E-003
 ph-ice C            8   564638.48846912337     
 cg2d: Sum(rhs),rhsMax =   1.00000000000000E+00  2.96382437587482E-05
 ph-ice B            9  -1.8965938579937487       5.09203631197779616E-002  8.40584971885390692E-003
 ph-ice C            9   691935.86023046379     
 cg2d: Sum(rhs),rhsMax =   1.00000000000000E+00  3.06558696230935E-05
(PID.TID 0000.0001) Did not write pickup because writePickupAtEnd = FALSE
(PID.TID 0000.0001) ph-cost call cost_theta0
(PID.TID 0000.0001) ph-cost call cost_salt0
(PID.TID 0000.0001) ph-cost call cost_theta
(PID.TID 0000.0001) ph-cost call cost_salt
(PID.TID 0000.0001) ph-cost call cost_smrarea
  SICD cost smrarea/sst/sss    0.0000000000000000        0.0000000000000000        0.0000000000000000     
  SICD num points smrarea/sst/sss    0.0000000000000000        0.0000000000000000        0.0000000000000000     
 --> f_ice     = 0.691935860230464D+06
 --> f_smrarea = 0.000000000000000D+00
 --> f_smrarea = 0.000000000000000D+00
 --> f_smrarea = 0.000000000000000D+00
 --> f_temp    = 0.205318410423471D-01
 --> f_salt    = 0.270386119755811D-02
 --> f_temp0   = 0.924200717024491D-14
 --> f_salt0   = 0.000000000000000D+00
 --> f_temp0smoo = 0.000000000000000D+00
 --> f_salt0smoo = 0.000000000000000D+00
 --> f_etan0   = 0.000000000000000D+00
 --> f_uvel0   = 0.000000000000000D+00
 --> f_vvel0   = 0.000000000000000D+00
 --> f_sst     = 0.000000000000000D+00
 --> f_tmi     = 0.000000000000000D+00
 --> f_sss     = 0.000000000000000D+00
 --> f_bp      = 0.000000000000000D+00
 --> f_ies      = 0.000000000000000D+00
 --> f_ssh       = 0.000000000000000D+00
 --> f_tp        = 0.000000000000000D+00
 --> f_ers       = 0.000000000000000D+00
 --> f_gfo       = 0.000000000000000D+00
 --> f_tauu    = 0.000000000000000D+00
 --> f_tauum   = 0.000000000000000D+00
 --> f_tauusmoo = 0.000000000000000D+00
 --> f_tauv    = 0.000000000000000D+00
 --> f_tauvm   = 0.000000000000000D+00
 --> f_tauvsmoo = 0.000000000000000D+00
 --> f_hflux   = 0.000000000000000D+00
 --> f_hfluxmm = 0.000000000000000D+00
 --> f_hfluxsmoo = 0.000000000000000D+00
 --> f_sflux   = 0.000000000000000D+00
 --> f_sfluxmm = 0.000000000000000D+00
 --> f_sfluxsmoo = 0.000000000000000D+00
 --> f_uwind     = 0.000000000000000D+00
 --> f_vwind     = 0.000000000000000D+00
 --> f_atemp     = 0.000000000000000D+00
 --> f_aqh     = 0.000000000000000D+00
 --> f_precip  = 0.000000000000000D+00
 --> f_swflux  = 0.000000000000000D+00
 --> f_swdown  = 0.000000000000000D+00
 --> f_uwindm     = 0.000000000000000D+00
 --> f_vwindm     = 0.000000000000000D+00
 --> f_atempm     = 0.000000000000000D+00
 --> f_aqhm     = 0.000000000000000D+00
 --> f_precipm  = 0.000000000000000D+00
 --> f_swfluxm  = 0.000000000000000D+00
 --> f_swdownm  = 0.000000000000000D+00
 --> f_uwindsmoo     = 0.000000000000000D+00
 --> f_vwindsmoo     = 0.000000000000000D+00
 --> f_atempsmoo     = 0.000000000000000D+00
 --> f_aqhsmoo     = 0.000000000000000D+00
 --> f_precipsmoo  = 0.000000000000000D+00
 --> f_swfluxsmoo  = 0.000000000000000D+00
 --> f_swdownsmoo  = 0.000000000000000D+00
 --> f_atl     = 0.000000000000000D+00
 --> f_ctdt    = 0.000000000000000D+00
 --> f_ctds    = 0.000000000000000D+00
 --> f_ctdtclim= 0.000000000000000D+00
 --> f_ctdsclim= 0.000000000000000D+00
 --> f_xbt     = 0.000000000000000D+00
 --> f_argot   = 0.000000000000000D+00
 --> f_argos   = 0.000000000000000D+00
 --> f_drifter   = 0.000000000000000D+00
 --> f_tdrift  = 0.000000000000000D+00
 --> f_sdrift  = 0.000000000000000D+00
 --> f_wdrift  = 0.000000000000000D+00
 --> f_scatx   = 0.000000000000000D+00
 --> f_scaty   = 0.000000000000000D+00
 --> f_scatxm  = 0.000000000000000D+00
 --> f_scatym  = 0.000000000000000D+00
 --> f_obcsn   = 0.000000000000000D+00
 --> f_obcss   = 0.000000000000000D+00
 --> f_obcsw   = 0.000000000000000D+00
 --> f_obcse   = 0.000000000000000D+00
 --> f_ageos   = 0.000000000000000D+00
 --> f_curmtr  = 0.000000000000000D+00
 --> f_kapgm   = 0.000000000000000D+00
 --> f_kapredi   = 0.000000000000000D+00
 --> f_diffkr  = 0.000000000000000D+00
 --> f_eddytau = 0.000000000000000D+00
 --> f_bottomdrag = 0.000000000000000D+00
 --> f_hfluxmm2           = 0.000000000000000D+00
 --> f_sfluxmm2           = 0.000000000000000D+00
 --> f_transp             = 0.000000000000000D+00
 --> objf_hmean           = 0.000000000000000D+00
 --> fc               = 0.691935860230464D+06
grad-res -------------------------------
 grad-res     0    1    1    1    1    1    1    1   6.91935671103E+05  6.91935481976E+05  6.91935860230E+05
 grad-res     0    1    1    1    0    1    1    1  -1.89127118581E+06 -1.89127117628E+06  5.03760122506E-09
(PID.TID 0000.0001)   TLM  precision_derivative_cost =    6.91935671103432E+05
(PID.TID 0000.0001)   TLM  precision_derivative_grad =   -1.89127118580979E+06
 ph-grd  ierr ---------------------------
 ph-grd  ierr =            0 , icomp =            1 , ichknum =            1
 ph-test icomp, ncvarcomp, ichknum            2          23           2
 ph-grd _loc: bi, bj, icomptest, ichknum            1           1           1           2
 ph-grd _loc: bi, bj, icomptest, ichknum            1           1           1           2
 ph-grd -->hit<--            1           1           2           1
(PID.TID 0000.0001) 
(PID.TID 0000.0001)  cal_TimeStamp: iter =          0 time =  0.00000000E+00
(PID.TID 0000.0001)                 date =   19790101           0
(PID.TID 0000.0001) 
(PID.TID 0000.0001) INI_CG2D: CG2D normalisation factor =  1.9483302809492266E-03
(PID.TID 0000.0001) 
(PID.TID 0000.0001) Start initial hydrostatic pressure computation
(PID.TID 0000.0001) Pressure is predetermined for buoyancyRelation OCEANIC
(PID.TID 0000.0001) 
(PID.TID 0000.0001) // =======================================================
(PID.TID 0000.0001) // Model current state
(PID.TID 0000.0001) // =======================================================
(PID.TID 0000.0001) 
(PID.TID 0000.0001) // =======================================================
(PID.TID 0000.0001) // Begin MONITOR dynamic field statistics
(PID.TID 0000.0001) // =======================================================
(PID.TID 0000.0001) %MON g__time_tsnumber             =                     0
(PID.TID 0000.0001) %MON g__time_secondsf             =   0.0000000000000E+00
(PID.TID 0000.0001) %MON g__dynstat_g_eta_max         =   0.0000000000000E+00
(PID.TID 0000.0001) %MON g__dynstat_g_eta_min         =   0.0000000000000E+00
(PID.TID 0000.0001) %MON g__dynstat_g_eta_mean        =   0.0000000000000E+00
(PID.TID 0000.0001) %MON g__dynstat_g_eta_sd          =   0.0000000000000E+00
(PID.TID 0000.0001) %MON g__dynstat_g_eta_del2        =   0.0000000000000E+00
(PID.TID 0000.0001) %MON g__dynstat_g_uvel_max        =   0.0000000000000E+00
(PID.TID 0000.0001) %MON g__dynstat_g_uvel_min        =   0.0000000000000E+00
(PID.TID 0000.0001) %MON g__dynstat_g_uvel_mean       =   0.0000000000000E+00
(PID.TID 0000.0001) %MON g__dynstat_g_uvel_sd         =   0.0000000000000E+00
(PID.TID 0000.0001) %MON g__dynstat_g_uvel_del2       =   0.0000000000000E+00
(PID.TID 0000.0001) %MON g__dynstat_g_vvel_max        =   0.0000000000000E+00
(PID.TID 0000.0001) %MON g__dynstat_g_vvel_min        =   0.0000000000000E+00
(PID.TID 0000.0001) %MON g__dynstat_g_vvel_mean       =   0.0000000000000E+00
(PID.TID 0000.0001) %MON g__dynstat_g_vvel_sd         =   0.0000000000000E+00
(PID.TID 0000.0001) %MON g__dynstat_g_vvel_del2       =   0.0000000000000E+00
(PID.TID 0000.0001) %MON g__dynstat_g_wvel_max        =   0.0000000000000E+00
(PID.TID 0000.0001) %MON g__dynstat_g_wvel_min        =   0.0000000000000E+00
(PID.TID 0000.0001) %MON g__dynstat_g_wvel_mean       =   0.0000000000000E+00
(PID.TID 0000.0001) %MON g__dynstat_g_wvel_sd         =   0.0000000000000E+00
(PID.TID 0000.0001) %MON g__dynstat_g_wvel_del2       =   0.0000000000000E+00
(PID.TID 0000.0001) %MON g__dynstat_g_theta_max       =   1.0000000000000E+00
(PID.TID 0000.0001) %MON g__dynstat_g_theta_min       =   0.0000000000000E+00
(PID.TID 0000.0001) %MON g__dynstat_g_theta_mean      =   1.9483302809492E-02
(PID.TID 0000.0001) %MON g__dynstat_g_theta_sd        =   1.3821614855409E-01
(PID.TID 0000.0001) %MON g__dynstat_g_theta_del2      =   0.0000000000000E+00
(PID.TID 0000.0001) %MON g__dynstat_g_salt_max        =   0.0000000000000E+00
(PID.TID 0000.0001) %MON g__dynstat_g_salt_min        =   0.0000000000000E+00
(PID.TID 0000.0001) %MON g__dynstat_g_salt_mean       =   0.0000000000000E+00
(PID.TID 0000.0001) %MON g__dynstat_g_salt_sd         =   0.0000000000000E+00
(PID.TID 0000.0001) %MON g__dynstat_g_salt_del2       =   0.0000000000000E+00
(PID.TID 0000.0001) %MON g__dynstat_g_sst_max         =   0.0000000000000E+00
(PID.TID 0000.0001) %MON g__dynstat_g_sst_min         =   0.0000000000000E+00
(PID.TID 0000.0001) %MON g__dynstat_g_sst_mean        =   0.0000000000000E+00
(PID.TID 0000.0001) %MON g__dynstat_g_sst_sd          =   0.0000000000000E+00
(PID.TID 0000.0001) %MON g__dynstat_g_sst_del2        =   0.0000000000000E+00
(PID.TID 0000.0001) %MON g__dynstat_g_sss_max         =   0.0000000000000E+00
(PID.TID 0000.0001) %MON g__dynstat_g_sss_min         =   0.0000000000000E+00
(PID.TID 0000.0001) %MON g__dynstat_g_sss_mean        =   0.0000000000000E+00
(PID.TID 0000.0001) %MON g__dynstat_g_sss_sd          =   0.0000000000000E+00
(PID.TID 0000.0001) %MON g__dynstat_g_sss_del2        =   0.0000000000000E+00
(PID.TID 0000.0001) %MON g__forcing_g_qnet_max        =   0.0000000000000E+00
(PID.TID 0000.0001) %MON g__forcing_g_qnet_min        =   0.0000000000000E+00
(PID.TID 0000.0001) %MON g__forcing_g_qnet_mean       =   0.0000000000000E+00
(PID.TID 0000.0001) %MON g__forcing_g_qnet_sd         =   0.0000000000000E+00
(PID.TID 0000.0001) %MON g__forcing_g_qnet_del2       =   0.0000000000000E+00
(PID.TID 0000.0001) %MON g__forcing_g_qsw_max         =   0.0000000000000E+00
(PID.TID 0000.0001) %MON g__forcing_g_qsw_min         =   0.0000000000000E+00
(PID.TID 0000.0001) %MON g__forcing_g_qsw_mean        =   0.0000000000000E+00
(PID.TID 0000.0001) %MON g__forcing_g_qsw_sd          =   0.0000000000000E+00
(PID.TID 0000.0001) %MON g__forcing_g_qsw_del2        =   0.0000000000000E+00
(PID.TID 0000.0001) %MON g__forcing_g_empmr_max       =   0.0000000000000E+00
(PID.TID 0000.0001) %MON g__forcing_g_empmr_min       =   0.0000000000000E+00
(PID.TID 0000.0001) %MON g__forcing_g_empmr_mean      =   0.0000000000000E+00
(PID.TID 0000.0001) %MON g__forcing_g_empmr_sd        =   0.0000000000000E+00
(PID.TID 0000.0001) %MON g__forcing_g_empmr_del2      =   0.0000000000000E+00
(PID.TID 0000.0001) %MON g__forcing_g_fu_max          =   0.0000000000000E+00
(PID.TID 0000.0001) %MON g__forcing_g_fu_min          =   0.0000000000000E+00
(PID.TID 0000.0001) %MON g__forcing_g_fu_mean         =   0.0000000000000E+00
(PID.TID 0000.0001) %MON g__forcing_g_fu_sd           =   0.0000000000000E+00
(PID.TID 0000.0001) %MON g__forcing_g_fu_del2         =   0.0000000000000E+00
(PID.TID 0000.0001) %MON g__forcing_g_fv_max          =   0.0000000000000E+00
(PID.TID 0000.0001) %MON g__forcing_g_fv_min          =   0.0000000000000E+00
(PID.TID 0000.0001) %MON g__forcing_g_fv_mean         =   0.0000000000000E+00
(PID.TID 0000.0001) %MON g__forcing_g_fv_sd           =   0.0000000000000E+00
(PID.TID 0000.0001) %MON g__forcing_g_fv_del2         =   0.0000000000000E+00
(PID.TID 0000.0001) %MON g__g_vcfl_g_uvel_max         =   0.0000000000000E+00
(PID.TID 0000.0001) %MON g__g_vcfl_g_vvel_max         =   0.0000000000000E+00
(PID.TID 0000.0001) %MON g__g_vcfl_g_wvel_max         =   0.0000000000000E+00
(PID.TID 0000.0001) %MON g__g_vcfl_g_W_hf_max         =   0.0000000000000E+00
(PID.TID 0000.0001) // =======================================================
(PID.TID 0000.0001) // End MONITOR dynamic field statistics
(PID.TID 0000.0001) // =======================================================
 myIter=            0
(PID.TID 0000.0001) // Model state written, timestep         0
(PID.TID 0000.0001) 
 cg2d: Sum(rhs),rhsMax =   0.00000000000000E+00  0.00000000000000E+00
 cg2d: Sum(rhs),rhsMax =   1.00000000000000E+00  5.58645366562891E-06
(PID.TID 0000.0001) // =======================================================
(PID.TID 0000.0001) // Begin MONITOR dynamic field statistics
(PID.TID 0000.0001) // =======================================================
(PID.TID 0000.0001) %MON g__time_tsnumber             =                     1
(PID.TID 0000.0001) %MON g__time_secondsf             =   3.6000000000000E+03
(PID.TID 0000.0001) %MON g__dynstat_g_eta_max         =   0.0000000000000E+00
(PID.TID 0000.0001) %MON g__dynstat_g_eta_min         =   0.0000000000000E+00
(PID.TID 0000.0001) %MON g__dynstat_g_eta_mean        =   0.0000000000000E+00
(PID.TID 0000.0001) %MON g__dynstat_g_eta_sd          =   0.0000000000000E+00
(PID.TID 0000.0001) %MON g__dynstat_g_eta_del2        =   0.0000000000000E+00
(PID.TID 0000.0001) %MON g__dynstat_g_uvel_max        =   8.0978642502556E-08
(PID.TID 0000.0001) %MON g__dynstat_g_uvel_min        =  -1.1657866510613E-07
(PID.TID 0000.0001) %MON g__dynstat_g_uvel_mean       =  -3.6383606764944E-25
(PID.TID 0000.0001) %MON g__dynstat_g_uvel_sd         =   2.0137797469743E-08
(PID.TID 0000.0001) %MON g__dynstat_g_uvel_del2       =   0.0000000000000E+00
(PID.TID 0000.0001) %MON g__dynstat_g_vvel_max        =   8.0978642502556E-08
(PID.TID 0000.0001) %MON g__dynstat_g_vvel_min        =  -1.1657866510613E-07
(PID.TID 0000.0001) %MON g__dynstat_g_vvel_mean       =  -3.6383606764944E-25
(PID.TID 0000.0001) %MON g__dynstat_g_vvel_sd         =   2.0137797469743E-08
(PID.TID 0000.0001) %MON g__dynstat_g_vvel_del2       =   0.0000000000000E+00
(PID.TID 0000.0001) %MON g__dynstat_g_wvel_max        =   0.0000000000000E+00
(PID.TID 0000.0001) %MON g__dynstat_g_wvel_min        =   0.0000000000000E+00
(PID.TID 0000.0001) %MON g__dynstat_g_wvel_mean       =   0.0000000000000E+00
(PID.TID 0000.0001) %MON g__dynstat_g_wvel_sd         =   0.0000000000000E+00
(PID.TID 0000.0001) %MON g__dynstat_g_wvel_del2       =   0.0000000000000E+00
(PID.TID 0000.0001) %MON g__dynstat_g_theta_max       =   4.8013991029875E-01
(PID.TID 0000.0001) %MON g__dynstat_g_theta_min       =   4.7324582559636-104
(PID.TID 0000.0001) %MON g__dynstat_g_theta_mean      =   1.9483302809492E-02
(PID.TID 0000.0001) %MON g__dynstat_g_theta_sd        =   8.1577156392957E-02
(PID.TID 0000.0001) %MON g__dynstat_g_theta_del2      =   0.0000000000000E+00
(PID.TID 0000.0001) %MON g__dynstat_g_salt_max        =   1.0675139454516E-05
(PID.TID 0000.0001) %MON g__dynstat_g_salt_min        =  -1.7510406589403E-05
(PID.TID 0000.0001) %MON g__dynstat_g_salt_mean       =  -4.9432422257220E-20
(PID.TID 0000.0001) %MON g__dynstat_g_salt_sd         =   2.9448612728518E-06
(PID.TID 0000.0001) %MON g__dynstat_g_salt_del2       =   0.0000000000000E+00
(PID.TID 0000.0001) %MON g__dynstat_g_sst_max         =   2.8242709216988E-01
(PID.TID 0000.0001) %MON g__dynstat_g_sst_min         =   2.8242709216988E-01
(PID.TID 0000.0001) %MON g__dynstat_g_sst_mean        =   2.8242709216988E-01
(PID.TID 0000.0001) %MON g__dynstat_g_sst_sd          =   0.0000000000000E+00
(PID.TID 0000.0001) %MON g__dynstat_g_sst_del2        =   0.0000000000000E+00
(PID.TID 0000.0001) %MON g__dynstat_g_sss_max         =   2.6509544966431E-06
(PID.TID 0000.0001) %MON g__dynstat_g_sss_min         =   2.6509544966431E-06
(PID.TID 0000.0001) %MON g__dynstat_g_sss_mean        =   2.6509544966431E-06
(PID.TID 0000.0001) %MON g__dynstat_g_sss_sd          =   0.0000000000000E+00
(PID.TID 0000.0001) %MON g__dynstat_g_sss_del2        =   0.0000000000000E+00
(PID.TID 0000.0001) %MON g__forcing_g_qnet_max        =   0.0000000000000E+00
(PID.TID 0000.0001) %MON g__forcing_g_qnet_min        =   0.0000000000000E+00
(PID.TID 0000.0001) %MON g__forcing_g_qnet_mean       =   0.0000000000000E+00
(PID.TID 0000.0001) %MON g__forcing_g_qnet_sd         =   0.0000000000000E+00
(PID.TID 0000.0001) %MON g__forcing_g_qnet_del2       =   0.0000000000000E+00
(PID.TID 0000.0001) %MON g__forcing_g_qsw_max         =   0.0000000000000E+00
(PID.TID 0000.0001) %MON g__forcing_g_qsw_min         =   0.0000000000000E+00
(PID.TID 0000.0001) %MON g__forcing_g_qsw_mean        =   0.0000000000000E+00
(PID.TID 0000.0001) %MON g__forcing_g_qsw_sd          =   0.0000000000000E+00
(PID.TID 0000.0001) %MON g__forcing_g_qsw_del2        =   0.0000000000000E+00
(PID.TID 0000.0001) %MON g__forcing_g_empmr_max       =   0.0000000000000E+00
(PID.TID 0000.0001) %MON g__forcing_g_empmr_min       =   0.0000000000000E+00
(PID.TID 0000.0001) %MON g__forcing_g_empmr_mean      =   0.0000000000000E+00
(PID.TID 0000.0001) %MON g__forcing_g_empmr_sd        =   0.0000000000000E+00
(PID.TID 0000.0001) %MON g__forcing_g_empmr_del2      =   0.0000000000000E+00
(PID.TID 0000.0001) %MON g__forcing_g_fu_max          =   0.0000000000000E+00
(PID.TID 0000.0001) %MON g__forcing_g_fu_min          =   0.0000000000000E+00
(PID.TID 0000.0001) %MON g__forcing_g_fu_mean         =   0.0000000000000E+00
(PID.TID 0000.0001) %MON g__forcing_g_fu_sd           =   0.0000000000000E+00
(PID.TID 0000.0001) %MON g__forcing_g_fu_del2         =   0.0000000000000E+00
(PID.TID 0000.0001) %MON g__forcing_g_fv_max          =   0.0000000000000E+00
(PID.TID 0000.0001) %MON g__forcing_g_fv_min          =   0.0000000000000E+00
(PID.TID 0000.0001) %MON g__forcing_g_fv_mean         =   0.0000000000000E+00
(PID.TID 0000.0001) %MON g__forcing_g_fv_sd           =   0.0000000000000E+00
(PID.TID 0000.0001) %MON g__forcing_g_fv_del2         =   0.0000000000000E+00
(PID.TID 0000.0001) %MON g__g_vcfl_g_uvel_max         =   8.3936638876415E-08
(PID.TID 0000.0001) %MON g__g_vcfl_g_vvel_max         =   8.3936638876415E-08
(PID.TID 0000.0001) %MON g__g_vcfl_g_wvel_max         =   0.0000000000000E+00
(PID.TID 0000.0001) %MON g__g_vcfl_g_W_hf_max         =   0.0000000000000E+00
(PID.TID 0000.0001) // =======================================================
(PID.TID 0000.0001) // End MONITOR dynamic field statistics
(PID.TID 0000.0001) // =======================================================
 myIter=            1
(PID.TID 0000.0001) // Model state written, timestep         1
(PID.TID 0000.0001) 
 cg2d: Sum(rhs),rhsMax =  -1.00000000000000E+00  3.96121866310953E-05
 cg2d: Sum(rhs),rhsMax =   1.00000000000000E+00  1.08504365899875E-05
(PID.TID 0000.0001) // =======================================================
(PID.TID 0000.0001) // Begin MONITOR dynamic field statistics
(PID.TID 0000.0001) // =======================================================
(PID.TID 0000.0001) %MON g__time_tsnumber             =                     2
(PID.TID 0000.0001) %MON g__time_secondsf             =   7.2000000000000E+03
(PID.TID 0000.0001) %MON g__dynstat_g_eta_max         =   1.0539772311897E-02
(PID.TID 0000.0001) %MON g__dynstat_g_eta_min         =   1.0539772311897E-02
(PID.TID 0000.0001) %MON g__dynstat_g_eta_mean        =   1.0539772311897E-02
(PID.TID 0000.0001) %MON g__dynstat_g_eta_sd          =   0.0000000000000E+00
(PID.TID 0000.0001) %MON g__dynstat_g_eta_del2        =   0.0000000000000E+00
(PID.TID 0000.0001) %MON g__dynstat_g_uvel_max        =   2.1046465879632E-03
(PID.TID 0000.0001) %MON g__dynstat_g_uvel_min        =  -1.3055402609828E-03
(PID.TID 0000.0001) %MON g__dynstat_g_uvel_mean       =   1.4271242311489E-07
(PID.TID 0000.0001) %MON g__dynstat_g_uvel_sd         =   3.5446278951277E-04
(PID.TID 0000.0001) %MON g__dynstat_g_uvel_del2       =   0.0000000000000E+00
(PID.TID 0000.0001) %MON g__dynstat_g_vvel_max        =   1.3743846172374E-03
(PID.TID 0000.0001) %MON g__dynstat_g_vvel_min        =  -7.8436844592946E-04
(PID.TID 0000.0001) %MON g__dynstat_g_vvel_mean       =   1.4271242311491E-07
(PID.TID 0000.0001) %MON g__dynstat_g_vvel_sd         =   2.2952227677791E-04
(PID.TID 0000.0001) %MON g__dynstat_g_vvel_del2       =   0.0000000000000E+00
(PID.TID 0000.0001) %MON g__dynstat_g_wvel_max        =   0.0000000000000E+00
(PID.TID 0000.0001) %MON g__dynstat_g_wvel_min        =   0.0000000000000E+00
(PID.TID 0000.0001) %MON g__dynstat_g_wvel_mean       =   0.0000000000000E+00
(PID.TID 0000.0001) %MON g__dynstat_g_wvel_sd         =   0.0000000000000E+00
(PID.TID 0000.0001) %MON g__dynstat_g_wvel_del2       =   0.0000000000000E+00
(PID.TID 0000.0001) %MON g__dynstat_g_theta_max       =   6.9000164771271E-01
(PID.TID 0000.0001) %MON g__dynstat_g_theta_min       =  -1.3525698453149E-01
(PID.TID 0000.0001) %MON g__dynstat_g_theta_mean      =   1.7755069400680E-02
(PID.TID 0000.0001) %MON g__dynstat_g_theta_sd        =   1.0281947700690E-01
(PID.TID 0000.0001) %MON g__dynstat_g_theta_del2      =   0.0000000000000E+00
(PID.TID 0000.0001) %MON g__dynstat_g_salt_max        =   6.4504608261573E-02
(PID.TID 0000.0001) %MON g__dynstat_g_salt_min        =  -4.5894770388028E-02
(PID.TID 0000.0001) %MON g__dynstat_g_salt_mean       =  -4.1696360191250E-04
(PID.TID 0000.0001) %MON g__dynstat_g_salt_sd         =   1.1745848611316E-02
(PID.TID 0000.0001) %MON g__dynstat_g_salt_del2       =   0.0000000000000E+00
(PID.TID 0000.0001) %MON g__dynstat_g_sst_max         =   1.9865260070800E-01
(PID.TID 0000.0001) %MON g__dynstat_g_sst_min         =   1.9865260070800E-01
(PID.TID 0000.0001) %MON g__dynstat_g_sst_mean        =   1.9865260070800E-01
(PID.TID 0000.0001) %MON g__dynstat_g_sst_sd          =   0.0000000000000E+00
(PID.TID 0000.0001) %MON g__dynstat_g_sst_del2        =   0.0000000000000E+00
(PID.TID 0000.0001) %MON g__dynstat_g_sss_max         =  -1.6652383609031E-02
(PID.TID 0000.0001) %MON g__dynstat_g_sss_min         =  -1.6652383609031E-02
(PID.TID 0000.0001) %MON g__dynstat_g_sss_mean        =  -1.6652383609031E-02
(PID.TID 0000.0001) %MON g__dynstat_g_sss_sd          =   0.0000000000000E+00
(PID.TID 0000.0001) %MON g__dynstat_g_sss_del2        =   0.0000000000000E+00
(PID.TID 0000.0001) %MON g__forcing_g_qnet_max        =   1.0086605912748E+03
(PID.TID 0000.0001) %MON g__forcing_g_qnet_min        =   1.0086605912748E+03
(PID.TID 0000.0001) %MON g__forcing_g_qnet_mean       =   1.0086605912748E+03
(PID.TID 0000.0001) %MON g__forcing_g_qnet_sd         =   0.0000000000000E+00
(PID.TID 0000.0001) %MON g__forcing_g_qnet_del2       =   0.0000000000000E+00
(PID.TID 0000.0001) %MON g__forcing_g_qsw_max         =   0.0000000000000E+00
(PID.TID 0000.0001) %MON g__forcing_g_qsw_min         =   0.0000000000000E+00
(PID.TID 0000.0001) %MON g__forcing_g_qsw_mean        =   0.0000000000000E+00
(PID.TID 0000.0001) %MON g__forcing_g_qsw_sd          =   0.0000000000000E+00
(PID.TID 0000.0001) %MON g__forcing_g_qsw_del2        =   0.0000000000000E+00
(PID.TID 0000.0001) %MON g__forcing_g_empmr_max       =  -3.0067628234189E-03
(PID.TID 0000.0001) %MON g__forcing_g_empmr_min       =  -3.0067628234189E-03
(PID.TID 0000.0001) %MON g__forcing_g_empmr_mean      =  -3.0067628234189E-03
(PID.TID 0000.0001) %MON g__forcing_g_empmr_sd        =   0.0000000000000E+00
(PID.TID 0000.0001) %MON g__forcing_g_empmr_del2      =   0.0000000000000E+00
(PID.TID 0000.0001) %MON g__forcing_g_fu_max          =   1.3060119774607E-05
(PID.TID 0000.0001) %MON g__forcing_g_fu_min          =   1.3060119774607E-05
(PID.TID 0000.0001) %MON g__forcing_g_fu_mean         =   1.3060119774607E-05
(PID.TID 0000.0001) %MON g__forcing_g_fu_sd           =   0.0000000000000E+00
(PID.TID 0000.0001) %MON g__forcing_g_fu_del2         =   0.0000000000000E+00
(PID.TID 0000.0001) %MON g__forcing_g_fv_max          =   1.3060119774607E-05
(PID.TID 0000.0001) %MON g__forcing_g_fv_min          =   1.3060119774607E-05
(PID.TID 0000.0001) %MON g__forcing_g_fv_mean         =   1.3060119774607E-05
(PID.TID 0000.0001) %MON g__forcing_g_fv_sd           =   0.0000000000000E+00
(PID.TID 0000.0001) %MON g__forcing_g_fv_del2         =   0.0000000000000E+00
(PID.TID 0000.0001) %MON g__g_vcfl_g_uvel_max         =   1.5153455433335E-03
(PID.TID 0000.0001) %MON g__g_vcfl_g_vvel_max         =   9.8955692441096E-04
(PID.TID 0000.0001) %MON g__g_vcfl_g_wvel_max         =   0.0000000000000E+00
(PID.TID 0000.0001) %MON g__g_vcfl_g_W_hf_max         =   0.0000000000000E+00
(PID.TID 0000.0001) // =======================================================
(PID.TID 0000.0001) // End MONITOR dynamic field statistics
(PID.TID 0000.0001) // =======================================================
 myIter=            2
(PID.TID 0000.0001) // Model state written, timestep         2
(PID.TID 0000.0001) 
 cg2d: Sum(rhs),rhsMax =  -1.00000000000000E+00  6.73260144110485E-05
 cg2d: Sum(rhs),rhsMax =   1.00000000000000E+00  1.54115956505727E-05
(PID.TID 0000.0001) // =======================================================
(PID.TID 0000.0001) // Begin MONITOR dynamic field statistics
(PID.TID 0000.0001) // =======================================================
(PID.TID 0000.0001) %MON g__time_tsnumber             =                     3
(PID.TID 0000.0001) %MON g__time_secondsf             =   1.0800000000000E+04
(PID.TID 0000.0001) %MON g__dynstat_g_eta_max         =   1.7913700881192E-02
(PID.TID 0000.0001) %MON g__dynstat_g_eta_min         =   1.7913700881192E-02
(PID.TID 0000.0001) %MON g__dynstat_g_eta_mean        =   1.7913700881192E-02
(PID.TID 0000.0001) %MON g__dynstat_g_eta_sd          =   0.0000000000000E+00
(PID.TID 0000.0001) %MON g__dynstat_g_eta_del2        =   0.0000000000000E+00
(PID.TID 0000.0001) %MON g__dynstat_g_uvel_max        =   4.4399957438465E-03
(PID.TID 0000.0001) %MON g__dynstat_g_uvel_min        =  -2.9065038718123E-03
(PID.TID 0000.0001) %MON g__dynstat_g_uvel_mean       =   2.7706097767419E-07
(PID.TID 0000.0001) %MON g__dynstat_g_uvel_sd         =   7.6828755989307E-04
(PID.TID 0000.0001) %MON g__dynstat_g_uvel_del2       =   0.0000000000000E+00
(PID.TID 0000.0001) %MON g__dynstat_g_vvel_max        =   1.3646996494494E-03
(PID.TID 0000.0001) %MON g__dynstat_g_vvel_min        =  -8.0363861756046E-04
(PID.TID 0000.0001) %MON g__dynstat_g_vvel_mean       =   1.1265626624587E-07
(PID.TID 0000.0001) %MON g__dynstat_g_vvel_sd         =   2.3120464691679E-04
(PID.TID 0000.0001) %MON g__dynstat_g_vvel_del2       =   0.0000000000000E+00
(PID.TID 0000.0001) %MON g__dynstat_g_wvel_max        =   0.0000000000000E+00
(PID.TID 0000.0001) %MON g__dynstat_g_wvel_min        =   0.0000000000000E+00
(PID.TID 0000.0001) %MON g__dynstat_g_wvel_mean       =   0.0000000000000E+00
(PID.TID 0000.0001) %MON g__dynstat_g_wvel_sd         =   0.0000000000000E+00
(PID.TID 0000.0001) %MON g__dynstat_g_wvel_del2       =   0.0000000000000E+00
(PID.TID 0000.0001) %MON g__dynstat_g_theta_max       =   1.4743105689958E+00
(PID.TID 0000.0001) %MON g__dynstat_g_theta_min       =  -5.0127974271716E-01
(PID.TID 0000.0001) %MON g__dynstat_g_theta_mean      =   1.6545841230575E-02
(PID.TID 0000.0001) %MON g__dynstat_g_theta_sd        =   2.1743226970206E-01
(PID.TID 0000.0001) %MON g__dynstat_g_theta_del2      =   0.0000000000000E+00
(PID.TID 0000.0001) %MON g__dynstat_g_salt_max        =   1.3763395409640E-01
(PID.TID 0000.0001) %MON g__dynstat_g_salt_min        =  -8.4985671119881E-02
(PID.TID 0000.0001) %MON g__dynstat_g_salt_mean       =  -7.0872835721695E-04
(PID.TID 0000.0001) %MON g__dynstat_g_salt_sd         =   2.4243382711832E-02
(PID.TID 0000.0001) %MON g__dynstat_g_salt_del2       =   0.0000000000000E+00
(PID.TID 0000.0001) %MON g__dynstat_g_sst_max         =   1.5074462919025E-03
(PID.TID 0000.0001) %MON g__dynstat_g_sst_min         =   1.5074462919025E-03
(PID.TID 0000.0001) %MON g__dynstat_g_sst_mean        =   1.5074462919025E-03
(PID.TID 0000.0001) %MON g__dynstat_g_sst_sd          =   0.0000000000000E+00
(PID.TID 0000.0001) %MON g__dynstat_g_sst_del2        =   0.0000000000000E+00
(PID.TID 0000.0001) %MON g__dynstat_g_sss_max         =  -3.8866365276277E-02
(PID.TID 0000.0001) %MON g__dynstat_g_sss_min         =  -3.8866365276277E-02
(PID.TID 0000.0001) %MON g__dynstat_g_sss_mean        =  -3.8866365276277E-02
(PID.TID 0000.0001) %MON g__dynstat_g_sss_sd          =   6.9388939039072E-18
(PID.TID 0000.0001) %MON g__dynstat_g_sss_del2        =   0.0000000000000E+00
(PID.TID 0000.0001) %MON g__forcing_g_qnet_max        =   7.0575004210908E+02
(PID.TID 0000.0001) %MON g__forcing_g_qnet_min        =   7.0575004210908E+02
(PID.TID 0000.0001) %MON g__forcing_g_qnet_mean       =   7.0575004210908E+02
(PID.TID 0000.0001) %MON g__forcing_g_qnet_sd         =   0.0000000000000E+00
(PID.TID 0000.0001) %MON g__forcing_g_qnet_del2       =   0.0000000000000E+00
(PID.TID 0000.0001) %MON g__forcing_g_qsw_max         =  -1.9268172447156E-03
(PID.TID 0000.0001) %MON g__forcing_g_qsw_min         =  -1.9268172447156E-03
(PID.TID 0000.0001) %MON g__forcing_g_qsw_mean        =  -1.9268172447156E-03
(PID.TID 0000.0001) %MON g__forcing_g_qsw_sd          =   0.0000000000000E+00
(PID.TID 0000.0001) %MON g__forcing_g_qsw_del2        =   0.0000000000000E+00
(PID.TID 0000.0001) %MON g__forcing_g_empmr_max       =  -2.1036179557398E-03
(PID.TID 0000.0001) %MON g__forcing_g_empmr_min       =  -2.1036179557398E-03
(PID.TID 0000.0001) %MON g__forcing_g_empmr_mean      =  -2.1036179557398E-03
(PID.TID 0000.0001) %MON g__forcing_g_empmr_sd        =   0.0000000000000E+00
(PID.TID 0000.0001) %MON g__forcing_g_empmr_del2      =   0.0000000000000E+00
(PID.TID 0000.0001) %MON g__forcing_g_fu_max          =   9.6696284373149E-06
(PID.TID 0000.0001) %MON g__forcing_g_fu_min          =   9.6696284373149E-06
(PID.TID 0000.0001) %MON g__forcing_g_fu_mean         =   9.6696284373149E-06
(PID.TID 0000.0001) %MON g__forcing_g_fu_sd           =   0.0000000000000E+00
(PID.TID 0000.0001) %MON g__forcing_g_fu_del2         =   0.0000000000000E+00
(PID.TID 0000.0001) %MON g__forcing_g_fv_max          =   9.6696284373149E-06
(PID.TID 0000.0001) %MON g__forcing_g_fv_min          =   9.6696284373149E-06
(PID.TID 0000.0001) %MON g__forcing_g_fv_mean         =   9.6696284373149E-06
(PID.TID 0000.0001) %MON g__forcing_g_fv_sd           =   0.0000000000000E+00
(PID.TID 0000.0001) %MON g__forcing_g_fv_del2         =   0.0000000000000E+00
(PID.TID 0000.0001) %MON g__g_vcfl_g_uvel_max         =   3.1967969355695E-03
(PID.TID 0000.0001) %MON g__g_vcfl_g_vvel_max         =   9.8258374760359E-04
(PID.TID 0000.0001) %MON g__g_vcfl_g_wvel_max         =   0.0000000000000E+00
(PID.TID 0000.0001) %MON g__g_vcfl_g_W_hf_max         =   0.0000000000000E+00
(PID.TID 0000.0001) // =======================================================
(PID.TID 0000.0001) // End MONITOR dynamic field statistics
(PID.TID 0000.0001) // =======================================================
 myIter=            3
(PID.TID 0000.0001) // Model state written, timestep         3
(PID.TID 0000.0001) 
 cg2d: Sum(rhs),rhsMax =  -1.00000000000000E+00  6.75277236516467E-05
 cg2d: Sum(rhs),rhsMax =   1.00000000000000E+00  1.91662515894767E-05
(PID.TID 0000.0001) // =======================================================
(PID.TID 0000.0001) // Begin MONITOR dynamic field statistics
(PID.TID 0000.0001) // =======================================================
(PID.TID 0000.0001) %MON g__time_tsnumber             =                     4
(PID.TID 0000.0001) %MON g__time_secondsf             =   1.4400000000000E+04
(PID.TID 0000.0001) %MON g__dynstat_g_eta_max         =   1.7967370462469E-02
(PID.TID 0000.0001) %MON g__dynstat_g_eta_min         =   1.7967370462469E-02
(PID.TID 0000.0001) %MON g__dynstat_g_eta_mean        =   1.7967370462469E-02
(PID.TID 0000.0001) %MON g__dynstat_g_eta_sd          =   0.0000000000000E+00
(PID.TID 0000.0001) %MON g__dynstat_g_eta_del2        =   0.0000000000000E+00
(PID.TID 0000.0001) %MON g__dynstat_g_uvel_max        =   4.5812009187836E-03
(PID.TID 0000.0001) %MON g__dynstat_g_uvel_min        =  -2.8809168080379E-03
(PID.TID 0000.0001) %MON g__dynstat_g_uvel_mean       =   2.9762424360458E-07
(PID.TID 0000.0001) %MON g__dynstat_g_uvel_sd         =   8.4782163397433E-04
(PID.TID 0000.0001) %MON g__dynstat_g_uvel_del2       =   0.0000000000000E+00
(PID.TID 0000.0001) %MON g__dynstat_g_vvel_max        =   8.5641821519887E-04
(PID.TID 0000.0001) %MON g__dynstat_g_vvel_min        =  -5.7809658266491E-04
(PID.TID 0000.0001) %MON g__dynstat_g_vvel_mean       =  -2.9605833536111E-08
(PID.TID 0000.0001) %MON g__dynstat_g_vvel_sd         =   1.4688719044026E-04
(PID.TID 0000.0001) %MON g__dynstat_g_vvel_del2       =   0.0000000000000E+00
(PID.TID 0000.0001) %MON g__dynstat_g_wvel_max        =   0.0000000000000E+00
(PID.TID 0000.0001) %MON g__dynstat_g_wvel_min        =   0.0000000000000E+00
(PID.TID 0000.0001) %MON g__dynstat_g_wvel_mean       =   0.0000000000000E+00
(PID.TID 0000.0001) %MON g__dynstat_g_wvel_sd         =   0.0000000000000E+00
(PID.TID 0000.0001) %MON g__dynstat_g_wvel_del2       =   0.0000000000000E+00
(PID.TID 0000.0001) %MON g__dynstat_g_theta_max       =   1.9806433513845E+00
(PID.TID 0000.0001) %MON g__dynstat_g_theta_min       =  -6.4877523382202E-01
(PID.TID 0000.0001) %MON g__dynstat_g_theta_mean      =   1.6536622315744E-02
(PID.TID 0000.0001) %MON g__dynstat_g_theta_sd        =   2.9463198018360E-01
(PID.TID 0000.0001) %MON g__dynstat_g_theta_del2      =   0.0000000000000E+00
(PID.TID 0000.0001) %MON g__dynstat_g_salt_max        =   1.8311855589002E-01
(PID.TID 0000.0001) %MON g__dynstat_g_salt_min        =  -9.8000971023996E-02
(PID.TID 0000.0001) %MON g__dynstat_g_salt_mean       =  -7.1090592007108E-04
(PID.TID 0000.0001) %MON g__dynstat_g_salt_sd         =   3.1388069701825E-02
(PID.TID 0000.0001) %MON g__dynstat_g_salt_del2       =   0.0000000000000E+00
(PID.TID 0000.0001) %MON g__dynstat_g_sst_max         =  -1.7456616400957E-01
(PID.TID 0000.0001) %MON g__dynstat_g_sst_min         =  -1.7456616400957E-01
(PID.TID 0000.0001) %MON g__dynstat_g_sst_mean        =  -1.7456616400957E-01
(PID.TID 0000.0001) %MON g__dynstat_g_sst_sd          =   0.0000000000000E+00
(PID.TID 0000.0001) %MON g__dynstat_g_sst_del2        =   0.0000000000000E+00
(PID.TID 0000.0001) %MON g__dynstat_g_sss_max         =  -5.5232465782316E-02
(PID.TID 0000.0001) %MON g__dynstat_g_sss_min         =  -5.5232465782316E-02
(PID.TID 0000.0001) %MON g__dynstat_g_sss_mean        =  -5.5232465782316E-02
(PID.TID 0000.0001) %MON g__dynstat_g_sss_sd          =   0.0000000000000E+00
(PID.TID 0000.0001) %MON g__dynstat_g_sss_del2        =   0.0000000000000E+00
(PID.TID 0000.0001) %MON g__forcing_g_qnet_max        =   5.3804978173506E+00
(PID.TID 0000.0001) %MON g__forcing_g_qnet_min        =   5.3804978173506E+00
(PID.TID 0000.0001) %MON g__forcing_g_qnet_mean       =   5.3804978173506E+00
(PID.TID 0000.0001) %MON g__forcing_g_qnet_sd         =   0.0000000000000E+00
(PID.TID 0000.0001) %MON g__forcing_g_qnet_del2       =   0.0000000000000E+00
(PID.TID 0000.0001) %MON g__forcing_g_qsw_max         =  -8.2077522495673E-03
(PID.TID 0000.0001) %MON g__forcing_g_qsw_min         =  -8.2077522495673E-03
(PID.TID 0000.0001) %MON g__forcing_g_qsw_mean        =  -8.2077522495673E-03
(PID.TID 0000.0001) %MON g__forcing_g_qsw_sd          =   0.0000000000000E+00
(PID.TID 0000.0001) %MON g__forcing_g_qsw_del2        =   0.0000000000000E+00
(PID.TID 0000.0001) %MON g__forcing_g_empmr_max       =  -1.5310738873999E-05
(PID.TID 0000.0001) %MON g__forcing_g_empmr_min       =  -1.5310738873999E-05
(PID.TID 0000.0001) %MON g__forcing_g_empmr_mean      =  -1.5310738873999E-05
(PID.TID 0000.0001) %MON g__forcing_g_empmr_sd        =   0.0000000000000E+00
(PID.TID 0000.0001) %MON g__forcing_g_empmr_del2      =   0.0000000000000E+00
(PID.TID 0000.0001) %MON g__forcing_g_fu_max          =   2.3905990998174E-06
(PID.TID 0000.0001) %MON g__forcing_g_fu_min          =   2.3905990998174E-06
(PID.TID 0000.0001) %MON g__forcing_g_fu_mean         =   2.3905990998174E-06
(PID.TID 0000.0001) %MON g__forcing_g_fu_sd           =   0.0000000000000E+00
(PID.TID 0000.0001) %MON g__forcing_g_fu_del2         =   0.0000000000000E+00
(PID.TID 0000.0001) %MON g__forcing_g_fv_max          =   2.3905990998174E-06
(PID.TID 0000.0001) %MON g__forcing_g_fv_min          =   2.3905990998174E-06
(PID.TID 0000.0001) %MON g__forcing_g_fv_mean         =   2.3905990998174E-06
(PID.TID 0000.0001) %MON g__forcing_g_fv_sd           =   0.0000000000000E+00
(PID.TID 0000.0001) %MON g__forcing_g_fv_del2         =   0.0000000000000E+00
(PID.TID 0000.0001) %MON g__g_vcfl_g_uvel_max         =   3.2984646615242E-03
(PID.TID 0000.0001) %MON g__g_vcfl_g_vvel_max         =   6.1662111494318E-04
(PID.TID 0000.0001) %MON g__g_vcfl_g_wvel_max         =   0.0000000000000E+00
(PID.TID 0000.0001) %MON g__g_vcfl_g_W_hf_max         =   0.0000000000000E+00
(PID.TID 0000.0001) // =======================================================
(PID.TID 0000.0001) // End MONITOR dynamic field statistics
(PID.TID 0000.0001) // =======================================================
 myIter=            4
(PID.TID 0000.0001) // Model state written, timestep         4
(PID.TID 0000.0001) 
 cg2d: Sum(rhs),rhsMax =  -1.00000000000000E+00  4.34115306740904E-05
 cg2d: Sum(rhs),rhsMax =   1.00000000000000E+00  2.21776143798627E-05
(PID.TID 0000.0001) // =======================================================
(PID.TID 0000.0001) // Begin MONITOR dynamic field statistics
(PID.TID 0000.0001) // =======================================================
(PID.TID 0000.0001) %MON g__time_tsnumber             =                     5
(PID.TID 0000.0001) %MON g__time_secondsf             =   1.8000000000000E+04
(PID.TID 0000.0001) %MON g__dynstat_g_eta_max         =   1.1550678918003E-02
(PID.TID 0000.0001) %MON g__dynstat_g_eta_min         =   1.1550678918003E-02
(PID.TID 0000.0001) %MON g__dynstat_g_eta_mean        =   1.1550678918003E-02
(PID.TID 0000.0001) %MON g__dynstat_g_eta_sd          =   0.0000000000000E+00
(PID.TID 0000.0001) %MON g__dynstat_g_eta_del2        =   0.0000000000000E+00
(PID.TID 0000.0001) %MON g__dynstat_g_uvel_max        =   1.5807371478155E-03
(PID.TID 0000.0001) %MON g__dynstat_g_uvel_min        =  -2.2467136538705E-03
(PID.TID 0000.0001) %MON g__dynstat_g_uvel_mean       =   1.8506780886145E-07
(PID.TID 0000.0001) %MON g__dynstat_g_uvel_sd         =   4.5421517973303E-04
(PID.TID 0000.0001) %MON g__dynstat_g_uvel_del2       =   0.0000000000000E+00
(PID.TID 0000.0001) %MON g__dynstat_g_vvel_max        =   2.0846195737026E-03
(PID.TID 0000.0001) %MON g__dynstat_g_vvel_min        =  -2.0834016874024E-03
(PID.TID 0000.0001) %MON g__dynstat_g_vvel_mean       =  -2.1236194779193E-07
(PID.TID 0000.0001) %MON g__dynstat_g_vvel_sd         =   4.2425233037543E-04
(PID.TID 0000.0001) %MON g__dynstat_g_vvel_del2       =   0.0000000000000E+00
(PID.TID 0000.0001) %MON g__dynstat_g_wvel_max        =   0.0000000000000E+00
(PID.TID 0000.0001) %MON g__dynstat_g_wvel_min        =   0.0000000000000E+00
(PID.TID 0000.0001) %MON g__dynstat_g_wvel_mean       =   0.0000000000000E+00
(PID.TID 0000.0001) %MON g__dynstat_g_wvel_sd         =   0.0000000000000E+00
(PID.TID 0000.0001) %MON g__dynstat_g_wvel_del2       =   0.0000000000000E+00
(PID.TID 0000.0001) %MON g__dynstat_g_theta_max       =   1.9252041161117E+00
(PID.TID 0000.0001) %MON g__dynstat_g_theta_min       =  -4.6425918484857E-01
(PID.TID 0000.0001) %MON g__dynstat_g_theta_mean      =   1.7588138699981E-02
(PID.TID 0000.0001) %MON g__dynstat_g_theta_sd        =   2.8140842333038E-01
(PID.TID 0000.0001) %MON g__dynstat_g_theta_del2      =   0.0000000000000E+00
(PID.TID 0000.0001) %MON g__dynstat_g_salt_max        =   1.7612714462478E-01
(PID.TID 0000.0001) %MON g__dynstat_g_salt_min        =  -7.7174388417576E-02
(PID.TID 0000.0001) %MON g__dynstat_g_salt_mean       =  -4.5707354303680E-04
(PID.TID 0000.0001) %MON g__dynstat_g_salt_sd         =   2.9437046754349E-02
(PID.TID 0000.0001) %MON g__dynstat_g_salt_del2       =   0.0000000000000E+00
(PID.TID 0000.0001) %MON g__dynstat_g_sst_max         =  -2.4271510431622E-01
(PID.TID 0000.0001) %MON g__dynstat_g_sst_min         =  -2.4271510431622E-01
(PID.TID 0000.0001) %MON g__dynstat_g_sst_mean        =  -2.4271510431622E-01
(PID.TID 0000.0001) %MON g__dynstat_g_sst_sd          =   0.0000000000000E+00
(PID.TID 0000.0001) %MON g__dynstat_g_sst_del2        =   0.0000000000000E+00
(PID.TID 0000.0001) %MON g__dynstat_g_sss_max         =  -5.8265756363618E-02
(PID.TID 0000.0001) %MON g__dynstat_g_sss_min         =  -5.8265756363618E-02
(PID.TID 0000.0001) %MON g__dynstat_g_sss_mean        =  -5.8265756363618E-02
(PID.TID 0000.0001) %MON g__dynstat_g_sss_sd          =   0.0000000000000E+00
(PID.TID 0000.0001) %MON g__dynstat_g_sss_del2        =   0.0000000000000E+00
(PID.TID 0000.0001) %MON g__forcing_g_qnet_max        =  -6.1370364237306E+02
(PID.TID 0000.0001) %MON g__forcing_g_qnet_min        =  -6.1370364237306E+02
(PID.TID 0000.0001) %MON g__forcing_g_qnet_mean       =  -6.1370364237306E+02
(PID.TID 0000.0001) %MON g__forcing_g_qnet_sd         =   0.0000000000000E+00
(PID.TID 0000.0001) %MON g__forcing_g_qnet_del2       =   0.0000000000000E+00
(PID.TID 0000.0001) %MON g__forcing_g_qsw_max         =  -8.9678148931861E-03
(PID.TID 0000.0001) %MON g__forcing_g_qsw_min         =  -8.9678148931861E-03
(PID.TID 0000.0001) %MON g__forcing_g_qsw_mean        =  -8.9678148931861E-03
(PID.TID 0000.0001) %MON g__forcing_g_qsw_sd          =   0.0000000000000E+00
(PID.TID 0000.0001) %MON g__forcing_g_qsw_del2        =   0.0000000000000E+00
(PID.TID 0000.0001) %MON g__forcing_g_empmr_max       =   1.8305395044933E-03
(PID.TID 0000.0001) %MON g__forcing_g_empmr_min       =   1.8305395044933E-03
(PID.TID 0000.0001) %MON g__forcing_g_empmr_mean      =   1.8305395044933E-03
(PID.TID 0000.0001) %MON g__forcing_g_empmr_sd        =   0.0000000000000E+00
(PID.TID 0000.0001) %MON g__forcing_g_empmr_del2      =   0.0000000000000E+00
(PID.TID 0000.0001) %MON g__forcing_g_fu_max          =  -5.6165188235535E-06
(PID.TID 0000.0001) %MON g__forcing_g_fu_min          =  -5.6165188235535E-06
(PID.TID 0000.0001) %MON g__forcing_g_fu_mean         =  -5.6165188235535E-06
(PID.TID 0000.0001) %MON g__forcing_g_fu_sd           =   0.0000000000000E+00
(PID.TID 0000.0001) %MON g__forcing_g_fu_del2         =   0.0000000000000E+00
(PID.TID 0000.0001) %MON g__forcing_g_fv_max          =  -5.6165188235535E-06
(PID.TID 0000.0001) %MON g__forcing_g_fv_min          =  -5.6165188235535E-06
(PID.TID 0000.0001) %MON g__forcing_g_fv_mean         =  -5.6165188235535E-06
(PID.TID 0000.0001) %MON g__forcing_g_fv_sd           =   0.0000000000000E+00
(PID.TID 0000.0001) %MON g__forcing_g_fv_del2         =   0.0000000000000E+00
(PID.TID 0000.0001) %MON g__g_vcfl_g_uvel_max         =   1.6176338307868E-03
(PID.TID 0000.0001) %MON g__g_vcfl_g_vvel_max         =   1.5009260930658E-03
(PID.TID 0000.0001) %MON g__g_vcfl_g_wvel_max         =   0.0000000000000E+00
(PID.TID 0000.0001) %MON g__g_vcfl_g_W_hf_max         =   0.0000000000000E+00
(PID.TID 0000.0001) // =======================================================
(PID.TID 0000.0001) // End MONITOR dynamic field statistics
(PID.TID 0000.0001) // =======================================================
 myIter=            5
(PID.TID 0000.0001) // Model state written, timestep         5
(PID.TID 0000.0001) 
 cg2d: Sum(rhs),rhsMax =  -1.00000000000000E+00  1.00555803212041E-05
 cg2d: Sum(rhs),rhsMax =   1.00000000000000E+00  2.45952871586638E-05
(PID.TID 0000.0001) // =======================================================
(PID.TID 0000.0001) // Begin MONITOR dynamic field statistics
(PID.TID 0000.0001) // =======================================================
(PID.TID 0000.0001) %MON g__time_tsnumber             =                     6
(PID.TID 0000.0001) %MON g__time_secondsf             =   2.1600000000000E+04
(PID.TID 0000.0001) %MON g__dynstat_g_eta_max         =   2.6755283174932E-03
(PID.TID 0000.0001) %MON g__dynstat_g_eta_min         =   2.6755283174932E-03
(PID.TID 0000.0001) %MON g__dynstat_g_eta_mean        =   2.6755283174932E-03
(PID.TID 0000.0001) %MON g__dynstat_g_eta_sd          =   0.0000000000000E+00
(PID.TID 0000.0001) %MON g__dynstat_g_eta_del2        =   0.0000000000000E+00
(PID.TID 0000.0001) %MON g__dynstat_g_uvel_max        =   2.1364840816969E-03
(PID.TID 0000.0001) %MON g__dynstat_g_uvel_min        =  -3.3726948169647E-03
(PID.TID 0000.0001) %MON g__dynstat_g_uvel_mean       =  -4.5947325346715E-08
(PID.TID 0000.0001) %MON g__dynstat_g_uvel_sd         =   5.9564992655830E-04
(PID.TID 0000.0001) %MON g__dynstat_g_uvel_del2       =   0.0000000000000E+00
(PID.TID 0000.0001) %MON g__dynstat_g_vvel_max        =   2.0512338060493E-03
(PID.TID 0000.0001) %MON g__dynstat_g_vvel_min        =  -2.7975263841572E-03
(PID.TID 0000.0001) %MON g__dynstat_g_vvel_mean       =  -3.6976368140126E-07
(PID.TID 0000.0001) %MON g__dynstat_g_vvel_sd         =   4.9490531061881E-04
(PID.TID 0000.0001) %MON g__dynstat_g_vvel_del2       =   0.0000000000000E+00
(PID.TID 0000.0001) %MON g__dynstat_g_wvel_max        =   0.0000000000000E+00
(PID.TID 0000.0001) %MON g__dynstat_g_wvel_min        =   0.0000000000000E+00
(PID.TID 0000.0001) %MON g__dynstat_g_wvel_mean       =   0.0000000000000E+00
(PID.TID 0000.0001) %MON g__dynstat_g_wvel_sd         =   0.0000000000000E+00
(PID.TID 0000.0001) %MON g__dynstat_g_wvel_del2       =   0.0000000000000E+00
(PID.TID 0000.0001) %MON g__dynstat_g_theta_max       =   1.4495818484611E+00
(PID.TID 0000.0001) %MON g__dynstat_g_theta_min       =  -1.9669723474808E-01
(PID.TID 0000.0001) %MON g__dynstat_g_theta_mean      =   1.9042956325189E-02
(PID.TID 0000.0001) %MON g__dynstat_g_theta_sd        =   2.0528312200951E-01
(PID.TID 0000.0001) %MON g__dynstat_g_theta_del2      =   0.0000000000000E+00
(PID.TID 0000.0001) %MON g__dynstat_g_salt_max        =   1.3159931253127E-01
(PID.TID 0000.0001) %MON g__dynstat_g_salt_min        =  -4.9455786694047E-02
(PID.TID 0000.0001) %MON g__dynstat_g_salt_mean       =  -1.0593964770451E-04
(PID.TID 0000.0001) %MON g__dynstat_g_salt_sd         =   2.1460433382073E-02
(PID.TID 0000.0001) %MON g__dynstat_g_salt_del2       =   0.0000000000000E+00
(PID.TID 0000.0001) %MON g__dynstat_g_sst_max         =  -1.9669723474808E-01
(PID.TID 0000.0001) %MON g__dynstat_g_sst_min         =  -1.9669723474808E-01
(PID.TID 0000.0001) %MON g__dynstat_g_sst_mean        =  -1.9669723474808E-01
(PID.TID 0000.0001) %MON g__dynstat_g_sst_sd          =   0.0000000000000E+00
(PID.TID 0000.0001) %MON g__dynstat_g_sst_del2        =   0.0000000000000E+00
(PID.TID 0000.0001) %MON g__dynstat_g_sss_max         =  -4.9455786694047E-02
(PID.TID 0000.0001) %MON g__dynstat_g_sss_min         =  -4.9455786694047E-02
(PID.TID 0000.0001) %MON g__dynstat_g_sss_mean        =  -4.9455786694047E-02
(PID.TID 0000.0001) %MON g__dynstat_g_sss_sd          =   6.9388939039072E-18
(PID.TID 0000.0001) %MON g__dynstat_g_sss_del2        =   0.0000000000000E+00
(PID.TID 0000.0001) %MON g__forcing_g_qnet_max        =  -8.4908508223290E+02
(PID.TID 0000.0001) %MON g__forcing_g_qnet_min        =  -8.4908508223290E+02
(PID.TID 0000.0001) %MON g__forcing_g_qnet_mean       =  -8.4908508223290E+02
(PID.TID 0000.0001) %MON g__forcing_g_qnet_sd         =   0.0000000000000E+00
(PID.TID 0000.0001) %MON g__forcing_g_qnet_del2       =   0.0000000000000E+00
(PID.TID 0000.0001) %MON g__forcing_g_qsw_max         =   3.3703825962416E-03
(PID.TID 0000.0001) %MON g__forcing_g_qsw_min         =   3.3703825962416E-03
(PID.TID 0000.0001) %MON g__forcing_g_qsw_mean        =   3.3703825962416E-03
(PID.TID 0000.0001) %MON g__forcing_g_qsw_sd          =   0.0000000000000E+00
(PID.TID 0000.0001) %MON g__forcing_g_qsw_del2        =   0.0000000000000E+00
(PID.TID 0000.0001) %MON g__forcing_g_empmr_max       =   2.5318832407562E-03
(PID.TID 0000.0001) %MON g__forcing_g_empmr_min       =   2.5318832407562E-03
(PID.TID 0000.0001) %MON g__forcing_g_empmr_mean      =   2.5318832407562E-03
(PID.TID 0000.0001) %MON g__forcing_g_empmr_sd        =   0.0000000000000E+00
(PID.TID 0000.0001) %MON g__forcing_g_empmr_del2      =   0.0000000000000E+00
(PID.TID 0000.0001) %MON g__forcing_g_fu_max          =  -1.2638443839883E-05
(PID.TID 0000.0001) %MON g__forcing_g_fu_min          =  -1.2638443839883E-05
(PID.TID 0000.0001) %MON g__forcing_g_fu_mean         =  -1.2638443839883E-05
(PID.TID 0000.0001) %MON g__forcing_g_fu_sd           =   1.6940658945086E-21
(PID.TID 0000.0001) %MON g__forcing_g_fu_del2         =   0.0000000000000E+00
(PID.TID 0000.0001) %MON g__forcing_g_fv_max          =  -1.2638443839883E-05
(PID.TID 0000.0001) %MON g__forcing_g_fv_min          =  -1.2638443839883E-05
(PID.TID 0000.0001) %MON g__forcing_g_fv_mean         =  -1.2638443839883E-05
(PID.TID 0000.0001) %MON g__forcing_g_fv_sd           =   1.6940658945086E-21
(PID.TID 0000.0001) %MON g__forcing_g_fv_del2         =   0.0000000000000E+00
(PID.TID 0000.0001) %MON g__g_vcfl_g_uvel_max         =   2.4283402682146E-03
(PID.TID 0000.0001) %MON g__g_vcfl_g_vvel_max         =   2.0142189965932E-03
(PID.TID 0000.0001) %MON g__g_vcfl_g_wvel_max         =   0.0000000000000E+00
(PID.TID 0000.0001) %MON g__g_vcfl_g_W_hf_max         =   0.0000000000000E+00
(PID.TID 0000.0001) // =======================================================
(PID.TID 0000.0001) // End MONITOR dynamic field statistics
(PID.TID 0000.0001) // =======================================================
 myIter=            6
(PID.TID 0000.0001) // Model state written, timestep         6
(PID.TID 0000.0001) 
 cg2d: Sum(rhs),rhsMax =   1.00000000000000E+00  1.68383341797723E-05
 cg2d: Sum(rhs),rhsMax =   1.00000000000000E+00  2.65835287231568E-05
(PID.TID 0000.0001) // =======================================================
(PID.TID 0000.0001) // Begin MONITOR dynamic field statistics
(PID.TID 0000.0001) // =======================================================
(PID.TID 0000.0001) %MON g__time_tsnumber             =                     7
(PID.TID 0000.0001) %MON g__time_secondsf             =   2.5200000000000E+04
(PID.TID 0000.0001) %MON g__dynstat_g_eta_max         =  -4.4802426591374E-03
(PID.TID 0000.0001) %MON g__dynstat_g_eta_min         =  -4.4802426591374E-03
(PID.TID 0000.0001) %MON g__dynstat_g_eta_mean        =  -4.4802426591374E-03
(PID.TID 0000.0001) %MON g__dynstat_g_eta_sd          =   0.0000000000000E+00
(PID.TID 0000.0001) %MON g__dynstat_g_eta_del2        =   0.0000000000000E+00
(PID.TID 0000.0001) %MON g__dynstat_g_uvel_max        =   4.0873671825528E-03
(PID.TID 0000.0001) %MON g__dynstat_g_uvel_min        =  -6.5226352029161E-03
(PID.TID 0000.0001) %MON g__dynstat_g_uvel_mean       =  -3.5322172789295E-07
(PID.TID 0000.0001) %MON g__dynstat_g_uvel_sd         =   1.1008045166398E-03
(PID.TID 0000.0001) %MON g__dynstat_g_uvel_del2       =   0.0000000000000E+00
(PID.TID 0000.0001) %MON g__dynstat_g_vvel_max        =   7.1666310576824E-04
(PID.TID 0000.0001) %MON g__dynstat_g_vvel_min        =  -1.4041308917711E-03
(PID.TID 0000.0001) %MON g__dynstat_g_vvel_mean       =  -4.4348407806961E-07
(PID.TID 0000.0001) %MON g__dynstat_g_vvel_sd         =   2.3539460381872E-04
(PID.TID 0000.0001) %MON g__dynstat_g_vvel_del2       =   0.0000000000000E+00
(PID.TID 0000.0001) %MON g__dynstat_g_wvel_max        =   0.0000000000000E+00
(PID.TID 0000.0001) %MON g__dynstat_g_wvel_min        =   0.0000000000000E+00
(PID.TID 0000.0001) %MON g__dynstat_g_wvel_mean       =   0.0000000000000E+00
(PID.TID 0000.0001) %MON g__dynstat_g_wvel_sd         =   0.0000000000000E+00
(PID.TID 0000.0001) %MON g__dynstat_g_wvel_del2       =   0.0000000000000E+00
(PID.TID 0000.0001) %MON g__dynstat_g_theta_max       =   1.0528638975139E+00
(PID.TID 0000.0001) %MON g__dynstat_g_theta_min       =  -1.0810504088852E-01
(PID.TID 0000.0001) %MON g__dynstat_g_theta_mean      =   2.0216434847482E-02
(PID.TID 0000.0001) %MON g__dynstat_g_theta_sd        =   1.4771246485251E-01
(PID.TID 0000.0001) %MON g__dynstat_g_theta_del2      =   0.0000000000000E+00
(PID.TID 0000.0001) %MON g__dynstat_g_salt_max        =   9.4970735604619E-02
(PID.TID 0000.0001) %MON g__dynstat_g_salt_min        =  -3.7807737033425E-02
(PID.TID 0000.0001) %MON g__dynstat_g_salt_mean       =   1.7718525424003E-04
(PID.TID 0000.0001) %MON g__dynstat_g_salt_sd         =   1.5130504974349E-02
(PID.TID 0000.0001) %MON g__dynstat_g_salt_del2       =   0.0000000000000E+00
(PID.TID 0000.0001) %MON g__dynstat_g_sst_max         =  -1.0810504088852E-01
(PID.TID 0000.0001) %MON g__dynstat_g_sst_min         =  -1.0810504088852E-01
(PID.TID 0000.0001) %MON g__dynstat_g_sst_mean        =  -1.0810504088852E-01
(PID.TID 0000.0001) %MON g__dynstat_g_sst_sd          =   0.0000000000000E+00
(PID.TID 0000.0001) %MON g__dynstat_g_sst_del2        =   0.0000000000000E+00
(PID.TID 0000.0001) %MON g__dynstat_g_sss_max         =  -3.7807737033425E-02
(PID.TID 0000.0001) %MON g__dynstat_g_sss_min         =  -3.7807737033425E-02
(PID.TID 0000.0001) %MON g__dynstat_g_sss_mean        =  -3.7807737033425E-02
(PID.TID 0000.0001) %MON g__dynstat_g_sss_sd          =   0.0000000000000E+00
(PID.TID 0000.0001) %MON g__dynstat_g_sss_del2        =   0.0000000000000E+00
(PID.TID 0000.0001) %MON g__forcing_g_qnet_max        =  -6.8488523257836E+02
(PID.TID 0000.0001) %MON g__forcing_g_qnet_min        =  -6.8488523257836E+02
(PID.TID 0000.0001) %MON g__forcing_g_qnet_mean       =  -6.8488523257836E+02
(PID.TID 0000.0001) %MON g__forcing_g_qnet_sd         =   0.0000000000000E+00
(PID.TID 0000.0001) %MON g__forcing_g_qnet_del2       =   0.0000000000000E+00
(PID.TID 0000.0001) %MON g__forcing_g_qsw_max         =   2.6211322644105E-02
(PID.TID 0000.0001) %MON g__forcing_g_qsw_min         =   2.6211322644105E-02
(PID.TID 0000.0001) %MON g__forcing_g_qsw_mean        =   2.6211322644105E-02
(PID.TID 0000.0001) %MON g__forcing_g_qsw_sd          =   0.0000000000000E+00
(PID.TID 0000.0001) %MON g__forcing_g_qsw_del2        =   0.0000000000000E+00
(PID.TID 0000.0001) %MON g__forcing_g_empmr_max       =   2.0413824424993E-03
(PID.TID 0000.0001) %MON g__forcing_g_empmr_min       =   2.0413824424993E-03
(PID.TID 0000.0001) %MON g__forcing_g_empmr_mean      =   2.0413824424993E-03
(PID.TID 0000.0001) %MON g__forcing_g_empmr_sd        =   0.0000000000000E+00
(PID.TID 0000.0001) %MON g__forcing_g_empmr_del2      =   0.0000000000000E+00
(PID.TID 0000.0001) %MON g__forcing_g_fu_max          =  -1.7566019240710E-05
(PID.TID 0000.0001) %MON g__forcing_g_fu_min          =  -1.7566019240710E-05
(PID.TID 0000.0001) %MON g__forcing_g_fu_mean         =  -1.7566019240710E-05
(PID.TID 0000.0001) %MON g__forcing_g_fu_sd           =   0.0000000000000E+00
(PID.TID 0000.0001) %MON g__forcing_g_fu_del2         =   0.0000000000000E+00
(PID.TID 0000.0001) %MON g__forcing_g_fv_max          =  -1.7566019240710E-05
(PID.TID 0000.0001) %MON g__forcing_g_fv_min          =  -1.7566019240710E-05
(PID.TID 0000.0001) %MON g__forcing_g_fv_mean         =  -1.7566019240710E-05
(PID.TID 0000.0001) %MON g__forcing_g_fv_sd           =   0.0000000000000E+00
(PID.TID 0000.0001) %MON g__forcing_g_fv_del2         =   0.0000000000000E+00
(PID.TID 0000.0001) %MON g__g_vcfl_g_uvel_max         =   4.6962973460996E-03
(PID.TID 0000.0001) %MON g__g_vcfl_g_vvel_max         =   1.0109742420752E-03
(PID.TID 0000.0001) %MON g__g_vcfl_g_wvel_max         =   0.0000000000000E+00
(PID.TID 0000.0001) %MON g__g_vcfl_g_W_hf_max         =   0.0000000000000E+00
(PID.TID 0000.0001) // =======================================================
(PID.TID 0000.0001) // End MONITOR dynamic field statistics
(PID.TID 0000.0001) // =======================================================
 myIter=            7
(PID.TID 0000.0001) // Model state written, timestep         7
(PID.TID 0000.0001) 
 cg2d: Sum(rhs),rhsMax =   1.00000000000000E+00  3.15429326055124E-05
 cg2d: Sum(rhs),rhsMax =   1.00000000000000E+00  2.82563874062722E-05
(PID.TID 0000.0001) // =======================================================
(PID.TID 0000.0001) // Begin MONITOR dynamic field statistics
(PID.TID 0000.0001) // =======================================================
(PID.TID 0000.0001) %MON g__time_tsnumber             =                     8
(PID.TID 0000.0001) %MON g__time_secondsf             =   2.8800000000000E+04
(PID.TID 0000.0001) %MON g__dynstat_g_eta_max         =  -8.3927537453983E-03
(PID.TID 0000.0001) %MON g__dynstat_g_eta_min         =  -8.3927537453983E-03
(PID.TID 0000.0001) %MON g__dynstat_g_eta_mean        =  -8.3927537453983E-03
(PID.TID 0000.0001) %MON g__dynstat_g_eta_sd          =   0.0000000000000E+00
(PID.TID 0000.0001) %MON g__dynstat_g_eta_del2        =   0.0000000000000E+00
(PID.TID 0000.0001) %MON g__dynstat_g_uvel_max        =   3.7455262079026E-03
(PID.TID 0000.0001) %MON g__dynstat_g_uvel_min        =  -5.7068354114258E-03
(PID.TID 0000.0001) %MON g__dynstat_g_uvel_mean       =  -6.7977529554706E-07
(PID.TID 0000.0001) %MON g__dynstat_g_uvel_sd         =   9.7149598630445E-04
(PID.TID 0000.0001) %MON g__dynstat_g_uvel_del2       =   0.0000000000000E+00
(PID.TID 0000.0001) %MON g__dynstat_g_vvel_max        =   7.9182369744272E-04
(PID.TID 0000.0001) %MON g__dynstat_g_vvel_min        =  -1.9520735582255E-03
(PID.TID 0000.0001) %MON g__dynstat_g_vvel_mean       =  -4.0092867894688E-07
(PID.TID 0000.0001) %MON g__dynstat_g_vvel_sd         =   3.1618646874486E-04
(PID.TID 0000.0001) %MON g__dynstat_g_vvel_del2       =   0.0000000000000E+00
(PID.TID 0000.0001) %MON g__dynstat_g_wvel_max        =   0.0000000000000E+00
(PID.TID 0000.0001) %MON g__dynstat_g_wvel_min        =   0.0000000000000E+00
(PID.TID 0000.0001) %MON g__dynstat_g_wvel_mean       =   0.0000000000000E+00
(PID.TID 0000.0001) %MON g__dynstat_g_wvel_sd         =   0.0000000000000E+00
(PID.TID 0000.0001) %MON g__dynstat_g_wvel_del2       =   0.0000000000000E+00
(PID.TID 0000.0001) %MON g__dynstat_g_theta_max       =   1.1906843452996E+00
(PID.TID 0000.0001) %MON g__dynstat_g_theta_min       =  -6.9621057175316E-02
(PID.TID 0000.0001) %MON g__dynstat_g_theta_mean      =   2.0858799509055E-02
(PID.TID 0000.0001) %MON g__dynstat_g_theta_sd        =   1.6528343204144E-01
(PID.TID 0000.0001) %MON g__dynstat_g_theta_del2      =   0.0000000000000E+00
(PID.TID 0000.0001) %MON g__dynstat_g_salt_max        =   1.0496055147849E-01
(PID.TID 0000.0001) %MON g__dynstat_g_salt_min        =  -3.2461769469734E-02
(PID.TID 0000.0001) %MON g__dynstat_g_salt_mean       =   3.3198726847323E-04
(PID.TID 0000.0001) %MON g__dynstat_g_salt_sd         =   1.6284529788657E-02
(PID.TID 0000.0001) %MON g__dynstat_g_salt_del2       =   0.0000000000000E+00
(PID.TID 0000.0001) %MON g__dynstat_g_sst_max         =  -6.9621057175316E-02
(PID.TID 0000.0001) %MON g__dynstat_g_sst_min         =  -6.9621057175316E-02
(PID.TID 0000.0001) %MON g__dynstat_g_sst_mean        =  -6.9621057175316E-02
(PID.TID 0000.0001) %MON g__dynstat_g_sst_sd          =   0.0000000000000E+00
(PID.TID 0000.0001) %MON g__dynstat_g_sst_del2        =   0.0000000000000E+00
(PID.TID 0000.0001) %MON g__dynstat_g_sss_max         =  -3.2461769469734E-02
(PID.TID 0000.0001) %MON g__dynstat_g_sss_min         =  -3.2461769469734E-02
(PID.TID 0000.0001) %MON g__dynstat_g_sss_mean        =  -3.2461769469734E-02
(PID.TID 0000.0001) %MON g__dynstat_g_sss_sd          =   0.0000000000000E+00
(PID.TID 0000.0001) %MON g__dynstat_g_sss_del2        =   0.0000000000000E+00
(PID.TID 0000.0001) %MON g__forcing_g_qnet_max        =  -3.7490764618503E+02
(PID.TID 0000.0001) %MON g__forcing_g_qnet_min        =  -3.7490764618503E+02
(PID.TID 0000.0001) %MON g__forcing_g_qnet_mean       =  -3.7490764618503E+02
(PID.TID 0000.0001) %MON g__forcing_g_qnet_sd         =   0.0000000000000E+00
(PID.TID 0000.0001) %MON g__forcing_g_qnet_del2       =   0.0000000000000E+00
(PID.TID 0000.0001) %MON g__forcing_g_qsw_max         =   4.8865184996114E-02
(PID.TID 0000.0001) %MON g__forcing_g_qsw_min         =   4.8865184996114E-02
(PID.TID 0000.0001) %MON g__forcing_g_qsw_mean        =   4.8865184996114E-02
(PID.TID 0000.0001) %MON g__forcing_g_qsw_sd          =   0.0000000000000E+00
(PID.TID 0000.0001) %MON g__forcing_g_qsw_del2        =   0.0000000000000E+00
(PID.TID 0000.0001) %MON g__forcing_g_empmr_max       =   1.1161524682177E-03
(PID.TID 0000.0001) %MON g__forcing_g_empmr_min       =   1.1161524682177E-03
(PID.TID 0000.0001) %MON g__forcing_g_empmr_mean      =   1.1161524682177E-03
(PID.TID 0000.0001) %MON g__forcing_g_empmr_sd        =   0.0000000000000E+00
(PID.TID 0000.0001) %MON g__forcing_g_empmr_del2      =   0.0000000000000E+00
(PID.TID 0000.0001) %MON g__forcing_g_fu_max          =  -2.0403578190995E-05
(PID.TID 0000.0001) %MON g__forcing_g_fu_min          =  -2.0403578190995E-05
(PID.TID 0000.0001) %MON g__forcing_g_fu_mean         =  -2.0403578190995E-05
(PID.TID 0000.0001) %MON g__forcing_g_fu_sd           =   0.0000000000000E+00
(PID.TID 0000.0001) %MON g__forcing_g_fu_del2         =   0.0000000000000E+00
(PID.TID 0000.0001) %MON g__forcing_g_fv_max          =  -2.0403578190995E-05
(PID.TID 0000.0001) %MON g__forcing_g_fv_min          =  -2.0403578190995E-05
(PID.TID 0000.0001) %MON g__forcing_g_fv_mean         =  -2.0403578190995E-05
(PID.TID 0000.0001) %MON g__forcing_g_fv_sd           =   0.0000000000000E+00
(PID.TID 0000.0001) %MON g__forcing_g_fv_del2         =   0.0000000000000E+00
(PID.TID 0000.0001) %MON g__g_vcfl_g_uvel_max         =   4.1089214962266E-03
(PID.TID 0000.0001) %MON g__g_vcfl_g_vvel_max         =   1.4054929619223E-03
(PID.TID 0000.0001) %MON g__g_vcfl_g_wvel_max         =   0.0000000000000E+00
(PID.TID 0000.0001) %MON g__g_vcfl_g_W_hf_max         =   0.0000000000000E+00
(PID.TID 0000.0001) // =======================================================
(PID.TID 0000.0001) // End MONITOR dynamic field statistics
(PID.TID 0000.0001) // =======================================================
 myIter=            8
(PID.TID 0000.0001) // Model state written, timestep         8
(PID.TID 0000.0001) 
 cg2d: Sum(rhs),rhsMax =   1.00000000000000E+00  4.09616802260000E-05
 cg2d: Sum(rhs),rhsMax =   1.00000000000000E+00  2.96382495632280E-05
(PID.TID 0000.0001) // =======================================================
(PID.TID 0000.0001) // Begin MONITOR dynamic field statistics
(PID.TID 0000.0001) // =======================================================
(PID.TID 0000.0001) %MON g__time_tsnumber             =                     9
(PID.TID 0000.0001) %MON g__time_secondsf             =   3.2400000000000E+04
(PID.TID 0000.0001) %MON g__dynstat_g_eta_max         =  -1.0898837449069E-02
(PID.TID 0000.0001) %MON g__dynstat_g_eta_min         =  -1.0898837449069E-02
(PID.TID 0000.0001) %MON g__dynstat_g_eta_mean        =  -1.0898837449069E-02
(PID.TID 0000.0001) %MON g__dynstat_g_eta_sd          =   1.7347234759768E-18
(PID.TID 0000.0001) %MON g__dynstat_g_eta_del2        =   0.0000000000000E+00
(PID.TID 0000.0001) %MON g__dynstat_g_uvel_max        =   1.3652575421565E-03
(PID.TID 0000.0001) %MON g__dynstat_g_uvel_min        =  -2.2708943876544E-03
(PID.TID 0000.0001) %MON g__dynstat_g_uvel_mean       =  -9.8173635499138E-07
(PID.TID 0000.0001) %MON g__dynstat_g_uvel_sd         =   4.1129258557528E-04
(PID.TID 0000.0001) %MON g__dynstat_g_uvel_del2       =   0.0000000000000E+00
(PID.TID 0000.0001) %MON g__dynstat_g_vvel_max        =   6.5414506907642E-03
(PID.TID 0000.0001) %MON g__dynstat_g_vvel_min        =  -6.7021517788594E-03
(PID.TID 0000.0001) %MON g__dynstat_g_vvel_mean       =  -2.5249270317072E-07
(PID.TID 0000.0001) %MON g__dynstat_g_vvel_sd         =   1.3389940239902E-03
(PID.TID 0000.0001) %MON g__dynstat_g_vvel_del2       =   0.0000000000000E+00
(PID.TID 0000.0001) %MON g__dynstat_g_wvel_max        =   0.0000000000000E+00
(PID.TID 0000.0001) %MON g__dynstat_g_wvel_min        =   0.0000000000000E+00
(PID.TID 0000.0001) %MON g__dynstat_g_wvel_mean       =   0.0000000000000E+00
(PID.TID 0000.0001) %MON g__dynstat_g_wvel_sd         =   0.0000000000000E+00
(PID.TID 0000.0001) %MON g__dynstat_g_wvel_del2       =   0.0000000000000E+00
(PID.TID 0000.0001) %MON g__dynstat_g_theta_max       =   2.2671967557565E+00
(PID.TID 0000.0001) %MON g__dynstat_g_theta_min       =  -7.0422971804298E-01
(PID.TID 0000.0001) %MON g__dynstat_g_theta_mean      =   2.1271059659365E-02
(PID.TID 0000.0001) %MON g__dynstat_g_theta_sd        =   3.3415567046320E-01
(PID.TID 0000.0001) %MON g__dynstat_g_theta_del2      =   0.0000000000000E+00
(PID.TID 0000.0001) %MON g__dynstat_g_salt_max        =   1.9330504259534E-01
(PID.TID 0000.0001) %MON g__dynstat_g_salt_min        =  -8.2400764986701E-02
(PID.TID 0000.0001) %MON g__dynstat_g_salt_mean       =   4.3114232026197E-04
(PID.TID 0000.0001) %MON g__dynstat_g_salt_sd         =   3.0619611536800E-02
(PID.TID 0000.0001) %MON g__dynstat_g_salt_del2       =   0.0000000000000E+00
(PID.TID 0000.0001) %MON g__dynstat_g_sst_max         =  -1.7598814775297E-01
(PID.TID 0000.0001) %MON g__dynstat_g_sst_min         =  -1.7598814775297E-01
(PID.TID 0000.0001) %MON g__dynstat_g_sst_mean        =  -1.7598814775297E-01
(PID.TID 0000.0001) %MON g__dynstat_g_sst_sd          =   0.0000000000000E+00
(PID.TID 0000.0001) %MON g__dynstat_g_sst_del2        =   0.0000000000000E+00
(PID.TID 0000.0001) %MON g__dynstat_g_sss_max         =  -4.0328422041817E-02
(PID.TID 0000.0001) %MON g__dynstat_g_sss_min         =  -4.0328422041817E-02
(PID.TID 0000.0001) %MON g__dynstat_g_sss_mean        =  -4.0328422041817E-02
(PID.TID 0000.0001) %MON g__dynstat_g_sss_sd          =   0.0000000000000E+00
(PID.TID 0000.0001) %MON g__dynstat_g_sss_del2        =   0.0000000000000E+00
(PID.TID 0000.0001) %MON g__forcing_g_qnet_max        =  -2.4061018890728E+02
(PID.TID 0000.0001) %MON g__forcing_g_qnet_min        =  -2.4061018890728E+02
(PID.TID 0000.0001) %MON g__forcing_g_qnet_mean       =  -2.4061018890728E+02
(PID.TID 0000.0001) %MON g__forcing_g_qnet_sd         =   0.0000000000000E+00
(PID.TID 0000.0001) %MON g__forcing_g_qnet_del2       =   0.0000000000000E+00
(PID.TID 0000.0001) %MON g__forcing_g_qsw_max         =   6.3311484245200E-02
(PID.TID 0000.0001) %MON g__forcing_g_qsw_min         =   6.3311484245200E-02
(PID.TID 0000.0001) %MON g__forcing_g_qsw_mean        =   6.3311484245200E-02
(PID.TID 0000.0001) %MON g__forcing_g_qsw_sd          =   0.0000000000000E+00
(PID.TID 0000.0001) %MON g__forcing_g_qsw_del2        =   0.0000000000000E+00
(PID.TID 0000.0001) %MON g__forcing_g_empmr_max       =   7.1492998990737E-04
(PID.TID 0000.0001) %MON g__forcing_g_empmr_min       =   7.1492998990737E-04
(PID.TID 0000.0001) %MON g__forcing_g_empmr_mean      =   7.1492998990737E-04
(PID.TID 0000.0001) %MON g__forcing_g_empmr_sd        =   0.0000000000000E+00
(PID.TID 0000.0001) %MON g__forcing_g_empmr_del2      =   0.0000000000000E+00
(PID.TID 0000.0001) %MON g__forcing_g_fu_max          =  -2.2917512567007E-05
(PID.TID 0000.0001) %MON g__forcing_g_fu_min          =  -2.2917512567007E-05
(PID.TID 0000.0001) %MON g__forcing_g_fu_mean         =  -2.2917512567007E-05
(PID.TID 0000.0001) %MON g__forcing_g_fu_sd           =   0.0000000000000E+00
(PID.TID 0000.0001) %MON g__forcing_g_fu_del2         =   0.0000000000000E+00
(PID.TID 0000.0001) %MON g__forcing_g_fv_max          =  -2.2917512567007E-05
(PID.TID 0000.0001) %MON g__forcing_g_fv_min          =  -2.2917512567007E-05
(PID.TID 0000.0001) %MON g__forcing_g_fv_mean         =  -2.2917512567007E-05
(PID.TID 0000.0001) %MON g__forcing_g_fv_sd           =   0.0000000000000E+00
(PID.TID 0000.0001) %MON g__forcing_g_fv_del2         =   0.0000000000000E+00
(PID.TID 0000.0001) %MON g__g_vcfl_g_uvel_max         =   1.6350439591112E-03
(PID.TID 0000.0001) %MON g__g_vcfl_g_vvel_max         =   4.8255492807788E-03
(PID.TID 0000.0001) %MON g__g_vcfl_g_wvel_max         =   0.0000000000000E+00
(PID.TID 0000.0001) %MON g__g_vcfl_g_W_hf_max         =   0.0000000000000E+00
(PID.TID 0000.0001) // =======================================================
(PID.TID 0000.0001) // End MONITOR dynamic field statistics
(PID.TID 0000.0001) // =======================================================
 myIter=            9
(PID.TID 0000.0001) // Model state written, timestep         9
(PID.TID 0000.0001) 
 cg2d: Sum(rhs),rhsMax =   1.00000000000000E+00  6.46600018964220E-05
 cg2d: Sum(rhs),rhsMax =   1.00000000000000E+00  3.06558785220526E-05
(PID.TID 0000.0001) // =======================================================
(PID.TID 0000.0001) // Begin MONITOR dynamic field statistics
(PID.TID 0000.0001) // =======================================================
(PID.TID 0000.0001) %MON g__time_tsnumber             =                    10
(PID.TID 0000.0001) %MON g__time_secondsf             =   3.6000000000000E+04
(PID.TID 0000.0001) %MON g__dynstat_g_eta_max         =  -1.7204344310030E-02
(PID.TID 0000.0001) %MON g__dynstat_g_eta_min         =  -1.7204344310030E-02
(PID.TID 0000.0001) %MON g__dynstat_g_eta_mean        =  -1.7204344310030E-02
(PID.TID 0000.0001) %MON g__dynstat_g_eta_sd          =   0.0000000000000E+00
(PID.TID 0000.0001) %MON g__dynstat_g_eta_del2        =   0.0000000000000E+00
(PID.TID 0000.0001) %MON g__dynstat_g_uvel_max        =   7.6540980770561E-02
(PID.TID 0000.0001) %MON g__dynstat_g_uvel_min        =  -6.2688247696910E-02
(PID.TID 0000.0001) %MON g__dynstat_g_uvel_mean       =  -1.2810673634910E-06
(PID.TID 0000.0001) %MON g__dynstat_g_uvel_sd         =   1.4024535487079E-02
(PID.TID 0000.0001) %MON g__dynstat_g_uvel_del2       =   0.0000000000000E+00
(PID.TID 0000.0001) %MON g__dynstat_g_vvel_max        =   3.4741596983818E-02
(PID.TID 0000.0001) %MON g__dynstat_g_vvel_min        =  -3.3390654196860E-02
(PID.TID 0000.0001) %MON g__dynstat_g_vvel_mean       =  -7.4339832659487E-08
(PID.TID 0000.0001) %MON g__dynstat_g_vvel_sd         =   6.8932211611799E-03
(PID.TID 0000.0001) %MON g__dynstat_g_vvel_del2       =   0.0000000000000E+00
(PID.TID 0000.0001) %MON g__dynstat_g_wvel_max        =   0.0000000000000E+00
(PID.TID 0000.0001) %MON g__dynstat_g_wvel_min        =   0.0000000000000E+00
(PID.TID 0000.0001) %MON g__dynstat_g_wvel_mean       =   0.0000000000000E+00
(PID.TID 0000.0001) %MON g__dynstat_g_wvel_sd         =   0.0000000000000E+00
(PID.TID 0000.0001) %MON g__dynstat_g_wvel_del2       =   0.0000000000000E+00
(PID.TID 0000.0001) %MON g__dynstat_g_theta_max       =   2.2671538846240E+00
(PID.TID 0000.0001) %MON g__dynstat_g_theta_min       =  -3.5811922522163E+00
(PID.TID 0000.0001) %MON g__dynstat_g_theta_mean      =   2.2306733116583E-02
(PID.TID 0000.0001) %MON g__dynstat_g_theta_sd        =   6.5057442740083E-01
(PID.TID 0000.0001) %MON g__dynstat_g_theta_del2      =   0.0000000000000E+00
(PID.TID 0000.0001) %MON g__dynstat_g_salt_max        =   1.9330220897766E-01
(PID.TID 0000.0001) %MON g__dynstat_g_salt_min        =  -1.5252286912308E-01
(PID.TID 0000.0001) %MON g__dynstat_g_salt_mean       =   6.8066659815949E-04
(PID.TID 0000.0001) %MON g__dynstat_g_salt_sd         =   3.4380011982909E-02
(PID.TID 0000.0001) %MON g__dynstat_g_salt_del2       =   0.0000000000000E+00
(PID.TID 0000.0001) %MON g__dynstat_g_sst_max         =   6.1253188944918E-01
(PID.TID 0000.0001) %MON g__dynstat_g_sst_min         =   6.1253188944918E-01
(PID.TID 0000.0001) %MON g__dynstat_g_sst_mean        =   6.1253188944918E-01
(PID.TID 0000.0001) %MON g__dynstat_g_sst_sd          =   0.0000000000000E+00
(PID.TID 0000.0001) %MON g__dynstat_g_sst_del2        =   0.0000000000000E+00
(PID.TID 0000.0001) %MON g__dynstat_g_sss_max         =  -7.6299448627424E-03
(PID.TID 0000.0001) %MON g__dynstat_g_sss_min         =  -7.6299448627424E-03
(PID.TID 0000.0001) %MON g__dynstat_g_sss_mean        =  -7.6299448627424E-03
(PID.TID 0000.0001) %MON g__dynstat_g_sss_sd          =   0.0000000000000E+00
(PID.TID 0000.0001) %MON g__dynstat_g_sss_del2        =   0.0000000000000E+00
(PID.TID 0000.0001) %MON g__forcing_g_qnet_max        =  -6.0445712737495E+02
(PID.TID 0000.0001) %MON g__forcing_g_qnet_min        =  -6.0445712737495E+02
(PID.TID 0000.0001) %MON g__forcing_g_qnet_mean       =  -6.0445712737495E+02
(PID.TID 0000.0001) %MON g__forcing_g_qnet_sd         =   0.0000000000000E+00
(PID.TID 0000.0001) %MON g__forcing_g_qnet_del2       =   0.0000000000000E+00
(PID.TID 0000.0001) %MON g__forcing_g_qsw_max         =   7.3777798137864E-02
(PID.TID 0000.0001) %MON g__forcing_g_qsw_min         =   7.3777798137864E-02
(PID.TID 0000.0001) %MON g__forcing_g_qsw_mean        =   7.3777798137864E-02
(PID.TID 0000.0001) %MON g__forcing_g_qsw_sd          =   0.0000000000000E+00
(PID.TID 0000.0001) %MON g__forcing_g_qsw_del2        =   0.0000000000000E+00
(PID.TID 0000.0001) %MON g__forcing_g_empmr_max       =   1.7988209850572E-03
(PID.TID 0000.0001) %MON g__forcing_g_empmr_min       =   1.7988209850572E-03
(PID.TID 0000.0001) %MON g__forcing_g_empmr_mean      =   1.7988209850572E-03
(PID.TID 0000.0001) %MON g__forcing_g_empmr_sd        =   0.0000000000000E+00
(PID.TID 0000.0001) %MON g__forcing_g_empmr_del2      =   0.0000000000000E+00
(PID.TID 0000.0001) %MON g__forcing_g_fu_max          =  -3.0602691022288E-05
(PID.TID 0000.0001) %MON g__forcing_g_fu_min          =  -3.0602691022288E-05
(PID.TID 0000.0001) %MON g__forcing_g_fu_mean         =  -3.0602691022288E-05
(PID.TID 0000.0001) %MON g__forcing_g_fu_sd           =   0.0000000000000E+00
(PID.TID 0000.0001) %MON g__forcing_g_fu_del2         =   0.0000000000000E+00
(PID.TID 0000.0001) %MON g__forcing_g_fv_max          =  -3.0602691022288E-05
(PID.TID 0000.0001) %MON g__forcing_g_fv_min          =  -3.0602691022288E-05
(PID.TID 0000.0001) %MON g__forcing_g_fv_mean         =  -3.0602691022288E-05
(PID.TID 0000.0001) %MON g__forcing_g_fv_sd           =   0.0000000000000E+00
(PID.TID 0000.0001) %MON g__forcing_g_fv_del2         =   0.0000000000000E+00
(PID.TID 0000.0001) %MON g__g_vcfl_g_uvel_max         =   5.5109506154804E-02
(PID.TID 0000.0001) %MON g__g_vcfl_g_vvel_max         =   2.5013949828349E-02
(PID.TID 0000.0001) %MON g__g_vcfl_g_wvel_max         =   0.0000000000000E+00
(PID.TID 0000.0001) %MON g__g_vcfl_g_W_hf_max         =   0.0000000000000E+00
(PID.TID 0000.0001) // =======================================================
(PID.TID 0000.0001) // End MONITOR dynamic field statistics
(PID.TID 0000.0001) // =======================================================
(PID.TID 0000.0001) Did not write pickup because writePickupAtEnd = FALSE
(PID.TID 0000.0001) 
(PID.TID 0000.0001)  cal_TimeStamp: iter =          0 time =  0.00000000E+00
(PID.TID 0000.0001)                 date =   19790101           0
(PID.TID 0000.0001) 
(PID.TID 0000.0001) INI_CG2D: CG2D normalisation factor =  1.9483302809492266E-03
(PID.TID 0000.0001) 
(PID.TID 0000.0001) Start initial hydrostatic pressure computation
(PID.TID 0000.0001) Pressure is predetermined for buoyancyRelation OCEANIC
(PID.TID 0000.0001) 
(PID.TID 0000.0001) // =======================================================
(PID.TID 0000.0001) // Model current state
(PID.TID 0000.0001) // =======================================================
(PID.TID 0000.0001) 
 ph-ice B            0  -1.9299999999999999       3.19162471080251071E-003  1.59581235540125536E-003
 ph-ice C            0   7978.8401425578732     
(PID.TID 0000.0001) SOLVE_FOR_PRESSURE: putPmEinXvector =    F
 cg2d: Sum(rhs),rhsMax =   1.00000000000000E+00  5.58645366562891E-06
 ph-ice B            1  -1.9277413898639790       8.88744643810899029E-003  3.09504100969067945E-003
 ph-ice C            1   30196.839071193444     
 cg2d: Sum(rhs),rhsMax =   1.00000000000000E+00  1.08504326287687E-05
 ph-ice B            2  -1.9227439509638586       1.45024480235437844E-002  4.38366052690089460E-003
 ph-ice C            2   66451.952043581448     
 cg2d: Sum(rhs),rhsMax =   1.00000000000000E+00  1.54115889179987E-05
 ph-ice B            3  -1.9169503552893448       2.00243196252928614E-002  5.43052672517442808E-003
 ph-ice C            3   116511.36056768794     
 cg2d: Sum(rhs),rhsMax =   1.00000000000000E+00  1.91662448367383E-05
 ph-ice B            4  -1.9115570503041917       2.54432301453411218E-002  6.25461576706857775E-003
 ph-ice C            4   180117.66908913737     
 cg2d: Sum(rhs),rhsMax =   1.00000000000000E+00  2.21776100387311E-05
 ph-ice B            5  -1.9071999900105223       3.07544747196436472E-002  6.90084914797229557E-003
 ph-ice C            5   257001.72022015951     
 cg2d: Sum(rhs),rhsMax =   1.00000000000000E+00  2.45952861530874E-05
 ph-ice B            6  -1.9040029688394915       3.59579710534538993E-002  7.41854949329349804E-003
 ph-ice C            6   346894.15084183257     
 cg2d: Sum(rhs),rhsMax =   1.00000000000000E+00  2.65835304069053E-05
 ph-ice B            7  -1.9016149331288381       4.10551567066888209E-002  7.84195998302865578E-003
 ph-ice C            7   449529.19163519924     
 cg2d: Sum(rhs),rhsMax =   1.00000000000000E+00  2.82563905605603E-05
 ph-ice B            8  -1.8993859334263683       4.60449296274609149E-002  8.17839606906305139E-003
 ph-ice C            8   564638.31822811288     
 cg2d: Sum(rhs),rhsMax =   1.00000000000000E+00  2.96382536593738E-05
 ph-ice B            9  -1.8965938987669286       5.09203571656895310E-002  8.40585432784788159E-003
 ph-ice C            9   691935.67510464566     
 cg2d: Sum(rhs),rhsMax =   1.00000000000000E+00  3.06558849879984E-05
(PID.TID 0000.0001) Did not write pickup because writePickupAtEnd = FALSE
(PID.TID 0000.0001) ph-cost call cost_theta0
(PID.TID 0000.0001) ph-cost call cost_salt0
(PID.TID 0000.0001) ph-cost call cost_theta
(PID.TID 0000.0001) ph-cost call cost_salt
(PID.TID 0000.0001) ph-cost call cost_smrarea
  SICD cost smrarea/sst/sss    0.0000000000000000        0.0000000000000000        0.0000000000000000     
  SICD num points smrarea/sst/sss    0.0000000000000000        0.0000000000000000        0.0000000000000000     
 --> f_ice     = 0.691935675104646D+06
 --> f_smrarea = 0.000000000000000D+00
 --> f_smrarea = 0.000000000000000D+00
 --> f_smrarea = 0.000000000000000D+00
 --> f_temp    = 0.205317560876008D-01
 --> f_salt    = 0.270385199995703D-02
 --> f_temp0   = 0.924911914164031D-14
 --> f_salt0   = 0.000000000000000D+00
 --> f_temp0smoo = 0.000000000000000D+00
 --> f_salt0smoo = 0.000000000000000D+00
 --> f_etan0   = 0.000000000000000D+00
 --> f_uvel0   = 0.000000000000000D+00
 --> f_vvel0   = 0.000000000000000D+00
 --> f_sst     = 0.000000000000000D+00
 --> f_tmi     = 0.000000000000000D+00
 --> f_sss     = 0.000000000000000D+00
 --> f_bp      = 0.000000000000000D+00
 --> f_ies      = 0.000000000000000D+00
 --> f_ssh       = 0.000000000000000D+00
 --> f_tp        = 0.000000000000000D+00
 --> f_ers       = 0.000000000000000D+00
 --> f_gfo       = 0.000000000000000D+00
 --> f_tauu    = 0.000000000000000D+00
 --> f_tauum   = 0.000000000000000D+00
 --> f_tauusmoo = 0.000000000000000D+00
 --> f_tauv    = 0.000000000000000D+00
 --> f_tauvm   = 0.000000000000000D+00
 --> f_tauvsmoo = 0.000000000000000D+00
 --> f_hflux   = 0.000000000000000D+00
 --> f_hfluxmm = 0.000000000000000D+00
 --> f_hfluxsmoo = 0.000000000000000D+00
 --> f_sflux   = 0.000000000000000D+00
 --> f_sfluxmm = 0.000000000000000D+00
 --> f_sfluxsmoo = 0.000000000000000D+00
 --> f_uwind     = 0.000000000000000D+00
 --> f_vwind     = 0.000000000000000D+00
 --> f_atemp     = 0.000000000000000D+00
 --> f_aqh     = 0.000000000000000D+00
 --> f_precip  = 0.000000000000000D+00
 --> f_swflux  = 0.000000000000000D+00
 --> f_swdown  = 0.000000000000000D+00
 --> f_uwindm     = 0.000000000000000D+00
 --> f_vwindm     = 0.000000000000000D+00
 --> f_atempm     = 0.000000000000000D+00
 --> f_aqhm     = 0.000000000000000D+00
 --> f_precipm  = 0.000000000000000D+00
 --> f_swfluxm  = 0.000000000000000D+00
 --> f_swdownm  = 0.000000000000000D+00
 --> f_uwindsmoo     = 0.000000000000000D+00
 --> f_vwindsmoo     = 0.000000000000000D+00
 --> f_atempsmoo     = 0.000000000000000D+00
 --> f_aqhsmoo     = 0.000000000000000D+00
 --> f_precipsmoo  = 0.000000000000000D+00
 --> f_swfluxsmoo  = 0.000000000000000D+00
 --> f_swdownsmoo  = 0.000000000000000D+00
 --> f_atl     = 0.000000000000000D+00
 --> f_ctdt    = 0.000000000000000D+00
 --> f_ctds    = 0.000000000000000D+00
 --> f_ctdtclim= 0.000000000000000D+00
 --> f_ctdsclim= 0.000000000000000D+00
 --> f_xbt     = 0.000000000000000D+00
 --> f_argot   = 0.000000000000000D+00
 --> f_argos   = 0.000000000000000D+00
 --> f_drifter   = 0.000000000000000D+00
 --> f_tdrift  = 0.000000000000000D+00
 --> f_sdrift  = 0.000000000000000D+00
 --> f_wdrift  = 0.000000000000000D+00
 --> f_scatx   = 0.000000000000000D+00
 --> f_scaty   = 0.000000000000000D+00
 --> f_scatxm  = 0.000000000000000D+00
 --> f_scatym  = 0.000000000000000D+00
 --> f_obcsn   = 0.000000000000000D+00
 --> f_obcss   = 0.000000000000000D+00
 --> f_obcsw   = 0.000000000000000D+00
 --> f_obcse   = 0.000000000000000D+00
 --> f_ageos   = 0.000000000000000D+00
 --> f_curmtr  = 0.000000000000000D+00
 --> f_kapgm   = 0.000000000000000D+00
 --> f_kapredi   = 0.000000000000000D+00
 --> f_diffkr  = 0.000000000000000D+00
 --> f_eddytau = 0.000000000000000D+00
 --> f_bottomdrag = 0.000000000000000D+00
 --> f_hfluxmm2           = 0.000000000000000D+00
 --> f_sfluxmm2           = 0.000000000000000D+00
 --> f_transp             = 0.000000000000000D+00
 --> objf_hmean           = 0.000000000000000D+00
 --> fc               = 0.691935675104646D+06
 ph-check fcpertplus =    691935.67510464566     
 ph-check fcpertminus =    691935.67110343161     
(PID.TID 0000.0001) 
(PID.TID 0000.0001)  cal_TimeStamp: iter =          0 time =  0.00000000E+00
(PID.TID 0000.0001)                 date =   19790101           0
(PID.TID 0000.0001) 
(PID.TID 0000.0001) INI_CG2D: CG2D normalisation factor =  1.9483302809492266E-03
(PID.TID 0000.0001) 
(PID.TID 0000.0001) Start initial hydrostatic pressure computation
(PID.TID 0000.0001) Pressure is predetermined for buoyancyRelation OCEANIC
(PID.TID 0000.0001) 
(PID.TID 0000.0001) // =======================================================
(PID.TID 0000.0001) // Model current state
(PID.TID 0000.0001) // =======================================================
(PID.TID 0000.0001) 
 ph-ice B            0  -1.9299999999999999       3.19162471080251071E-003  1.59581235540125536E-003
 ph-ice C            0   7978.8401425578732     
(PID.TID 0000.0001) SOLVE_FOR_PRESSURE: putPmEinXvector =    F
 cg2d: Sum(rhs),rhsMax =   1.00000000000000E+00  5.58645366562891E-06
 ph-ice B            1  -1.9277414463493985       8.88744645612423584E-003  3.09504338904013692E-003
 ph-ice C            1   30196.839116230309     
 cg2d: Sum(rhs),rhsMax =   1.00000000000000E+00  1.08504405512062E-05
 ph-ice B            2  -1.9227439906945509       1.45024481015568561E-002  4.38366457092047475E-003
 ph-ice C            2   66451.952283645573     
 cg2d: Sum(rhs),rhsMax =   1.00000000000000E+00  1.54116023832332E-05
 ph-ice B            3  -1.9169503555914797       2.00243197032065508E-002  5.43053078134326205E-003
 ph-ice C            3   116511.36100253087     
 cg2d: Sum(rhs),rhsMax =   1.00000000000000E+00  1.91662583424046E-05
 ph-ice B            4  -1.9115570153912933       2.54432300893504305E-002  6.25461837469227545E-003
 ph-ice C            4   180117.66938400746     
 cg2d: Sum(rhs),rhsMax =   1.00000000000000E+00  2.21776187211973E-05
 ph-ice B            5  -1.9071999414672294       3.07544744265577617E-002  6.90084975201872564E-003
 ph-ice C            5   257001.71978233525     
 cg2d: Sum(rhs),rhsMax =   1.00000000000000E+00  2.45952881643441E-05
 ph-ice B            6  -1.9040029294997329       3.59579705303015307E-002  7.41854848189095126E-003
 ph-ice C            6   346894.14909616369     
 cg2d: Sum(rhs),rhsMax =   1.00000000000000E+00  2.65835270393318E-05
 ph-ice B            7  -1.9016149115075565       4.10551560406692689E-002  7.84195808832442547E-003
 ph-ice C            7   449529.18822452775     
 cg2d: Sum(rhs),rhsMax =   1.00000000000000E+00  2.82563842520347E-05
 ph-ice B            8  -1.8993859195015403       4.60449288608417162E-002  8.17839360853189583E-003
 ph-ice C            8   564638.31290094659     
 cg2d: Sum(rhs),rhsMax =   1.00000000000000E+00  2.96382454670537E-05
 ph-ice B            9  -1.8965938635690580       5.09203560955528156E-002  8.40585044377880480E-003
 ph-ice C            9   691935.66710221197     
 cg2d: Sum(rhs),rhsMax =   1.00000000000000E+00  3.06558720559812E-05
(PID.TID 0000.0001) Did not write pickup because writePickupAtEnd = FALSE
(PID.TID 0000.0001) ph-cost call cost_theta0
(PID.TID 0000.0001) ph-cost call cost_salt0
(PID.TID 0000.0001) ph-cost call cost_theta
(PID.TID 0000.0001) ph-cost call cost_salt
(PID.TID 0000.0001) ph-cost call cost_smrarea
  SICD cost smrarea/sst/sss    0.0000000000000000        0.0000000000000000        0.0000000000000000     
  SICD num points smrarea/sst/sss    0.0000000000000000        0.0000000000000000        0.0000000000000000     
 --> f_ice     = 0.691935667102212D+06
 --> f_smrarea = 0.000000000000000D+00
 --> f_smrarea = 0.000000000000000D+00
 --> f_smrarea = 0.000000000000000D+00
 --> f_temp    = 0.205318285916579D-01
 --> f_salt    = 0.270385957357452D-02
 --> f_temp0   = 0.924911914164031D-14
 --> f_salt0   = 0.000000000000000D+00
 --> f_temp0smoo = 0.000000000000000D+00
 --> f_salt0smoo = 0.000000000000000D+00
 --> f_etan0   = 0.000000000000000D+00
 --> f_uvel0   = 0.000000000000000D+00
 --> f_vvel0   = 0.000000000000000D+00
 --> f_sst     = 0.000000000000000D+00
 --> f_tmi     = 0.000000000000000D+00
 --> f_sss     = 0.000000000000000D+00
 --> f_bp      = 0.000000000000000D+00
 --> f_ies      = 0.000000000000000D+00
 --> f_ssh       = 0.000000000000000D+00
 --> f_tp        = 0.000000000000000D+00
 --> f_ers       = 0.000000000000000D+00
 --> f_gfo       = 0.000000000000000D+00
 --> f_tauu    = 0.000000000000000D+00
 --> f_tauum   = 0.000000000000000D+00
 --> f_tauusmoo = 0.000000000000000D+00
 --> f_tauv    = 0.000000000000000D+00
 --> f_tauvm   = 0.000000000000000D+00
 --> f_tauvsmoo = 0.000000000000000D+00
 --> f_hflux   = 0.000000000000000D+00
 --> f_hfluxmm = 0.000000000000000D+00
 --> f_hfluxsmoo = 0.000000000000000D+00
 --> f_sflux   = 0.000000000000000D+00
 --> f_sfluxmm = 0.000000000000000D+00
 --> f_sfluxsmoo = 0.000000000000000D+00
 --> f_uwind     = 0.000000000000000D+00
 --> f_vwind     = 0.000000000000000D+00
 --> f_atemp     = 0.000000000000000D+00
 --> f_aqh     = 0.000000000000000D+00
 --> f_precip  = 0.000000000000000D+00
 --> f_swflux  = 0.000000000000000D+00
 --> f_swdown  = 0.000000000000000D+00
 --> f_uwindm     = 0.000000000000000D+00
 --> f_vwindm     = 0.000000000000000D+00
 --> f_atempm     = 0.000000000000000D+00
 --> f_aqhm     = 0.000000000000000D+00
 --> f_precipm  = 0.000000000000000D+00
 --> f_swfluxm  = 0.000000000000000D+00
 --> f_swdownm  = 0.000000000000000D+00
 --> f_uwindsmoo     = 0.000000000000000D+00
 --> f_vwindsmoo     = 0.000000000000000D+00
 --> f_atempsmoo     = 0.000000000000000D+00
 --> f_aqhsmoo     = 0.000000000000000D+00
 --> f_precipsmoo  = 0.000000000000000D+00
 --> f_swfluxsmoo  = 0.000000000000000D+00
 --> f_swdownsmoo  = 0.000000000000000D+00
 --> f_atl     = 0.000000000000000D+00
 --> f_ctdt    = 0.000000000000000D+00
 --> f_ctds    = 0.000000000000000D+00
 --> f_ctdtclim= 0.000000000000000D+00
 --> f_ctdsclim= 0.000000000000000D+00
 --> f_xbt     = 0.000000000000000D+00
 --> f_argot   = 0.000000000000000D+00
 --> f_argos   = 0.000000000000000D+00
 --> f_drifter   = 0.000000000000000D+00
 --> f_tdrift  = 0.000000000000000D+00
 --> f_sdrift  = 0.000000000000000D+00
 --> f_wdrift  = 0.000000000000000D+00
 --> f_scatx   = 0.000000000000000D+00
 --> f_scaty   = 0.000000000000000D+00
 --> f_scatxm  = 0.000000000000000D+00
 --> f_scatym  = 0.000000000000000D+00
 --> f_obcsn   = 0.000000000000000D+00
 --> f_obcss   = 0.000000000000000D+00
 --> f_obcsw   = 0.000000000000000D+00
 --> f_obcse   = 0.000000000000000D+00
 --> f_ageos   = 0.000000000000000D+00
 --> f_curmtr  = 0.000000000000000D+00
 --> f_kapgm   = 0.000000000000000D+00
 --> f_kapredi   = 0.000000000000000D+00
 --> f_diffkr  = 0.000000000000000D+00
 --> f_eddytau = 0.000000000000000D+00
 --> f_bottomdrag = 0.000000000000000D+00
 --> f_hfluxmm2           = 0.000000000000000D+00
 --> f_sfluxmm2           = 0.000000000000000D+00
 --> f_transp             = 0.000000000000000D+00
 --> objf_hmean           = 0.000000000000000D+00
 --> fc               = 0.691935667102212D+06
grad-res -------------------------------
 grad-res     0    2    1    1    2    1    1    1   6.91935671103E+05  6.91935675105E+05  6.91935667102E+05
 grad-res     0    2    2    2    0    1    1    1   4.00120405990E+04  4.00121684652E+04 -3.19569322493E-06
(PID.TID 0000.0001)   TLM  precision_derivative_cost =    6.91935671103432E+05
(PID.TID 0000.0001)   TLM  precision_derivative_grad =    4.00120405989751E+04
 ph-grd  ierr ---------------------------
 ph-grd  ierr =            0 , icomp =            2 , ichknum =            2
 ph-test icomp, ncvarcomp, ichknum            3          23           3
 ph-grd _loc: bi, bj, icomptest, ichknum            1           1           2           3
 ph-grd _loc: bi, bj, icomptest, ichknum            1           1           2           3
 ph-grd -->hit<--            1           1           3           1
(PID.TID 0000.0001) 
(PID.TID 0000.0001)  cal_TimeStamp: iter =          0 time =  0.00000000E+00
(PID.TID 0000.0001)                 date =   19790101           0
(PID.TID 0000.0001) 
(PID.TID 0000.0001) INI_CG2D: CG2D normalisation factor =  1.9483302809492266E-03
(PID.TID 0000.0001) 
(PID.TID 0000.0001) Start initial hydrostatic pressure computation
(PID.TID 0000.0001) Pressure is predetermined for buoyancyRelation OCEANIC
(PID.TID 0000.0001) 
(PID.TID 0000.0001) // =======================================================
(PID.TID 0000.0001) // Model current state
(PID.TID 0000.0001) // =======================================================
(PID.TID 0000.0001) 
(PID.TID 0000.0001) // =======================================================
(PID.TID 0000.0001) // Begin MONITOR dynamic field statistics
(PID.TID 0000.0001) // =======================================================
(PID.TID 0000.0001) %MON g__time_tsnumber             =                     0
(PID.TID 0000.0001) %MON g__time_secondsf             =   0.0000000000000E+00
(PID.TID 0000.0001) %MON g__dynstat_g_eta_max         =   0.0000000000000E+00
(PID.TID 0000.0001) %MON g__dynstat_g_eta_min         =   0.0000000000000E+00
(PID.TID 0000.0001) %MON g__dynstat_g_eta_mean        =   0.0000000000000E+00
(PID.TID 0000.0001) %MON g__dynstat_g_eta_sd          =   0.0000000000000E+00
(PID.TID 0000.0001) %MON g__dynstat_g_eta_del2        =   0.0000000000000E+00
(PID.TID 0000.0001) %MON g__dynstat_g_uvel_max        =   0.0000000000000E+00
(PID.TID 0000.0001) %MON g__dynstat_g_uvel_min        =   0.0000000000000E+00
(PID.TID 0000.0001) %MON g__dynstat_g_uvel_mean       =   0.0000000000000E+00
(PID.TID 0000.0001) %MON g__dynstat_g_uvel_sd         =   0.0000000000000E+00
(PID.TID 0000.0001) %MON g__dynstat_g_uvel_del2       =   0.0000000000000E+00
(PID.TID 0000.0001) %MON g__dynstat_g_vvel_max        =   0.0000000000000E+00
(PID.TID 0000.0001) %MON g__dynstat_g_vvel_min        =   0.0000000000000E+00
(PID.TID 0000.0001) %MON g__dynstat_g_vvel_mean       =   0.0000000000000E+00
(PID.TID 0000.0001) %MON g__dynstat_g_vvel_sd         =   0.0000000000000E+00
(PID.TID 0000.0001) %MON g__dynstat_g_vvel_del2       =   0.0000000000000E+00
(PID.TID 0000.0001) %MON g__dynstat_g_wvel_max        =   0.0000000000000E+00
(PID.TID 0000.0001) %MON g__dynstat_g_wvel_min        =   0.0000000000000E+00
(PID.TID 0000.0001) %MON g__dynstat_g_wvel_mean       =   0.0000000000000E+00
(PID.TID 0000.0001) %MON g__dynstat_g_wvel_sd         =   0.0000000000000E+00
(PID.TID 0000.0001) %MON g__dynstat_g_wvel_del2       =   0.0000000000000E+00
(PID.TID 0000.0001) %MON g__dynstat_g_theta_max       =   1.0000000000000E+00
(PID.TID 0000.0001) %MON g__dynstat_g_theta_min       =   0.0000000000000E+00
(PID.TID 0000.0001) %MON g__dynstat_g_theta_mean      =   1.9483302809492E-02
(PID.TID 0000.0001) %MON g__dynstat_g_theta_sd        =   1.3821614855409E-01
(PID.TID 0000.0001) %MON g__dynstat_g_theta_del2      =   0.0000000000000E+00
(PID.TID 0000.0001) %MON g__dynstat_g_salt_max        =   0.0000000000000E+00
(PID.TID 0000.0001) %MON g__dynstat_g_salt_min        =   0.0000000000000E+00
(PID.TID 0000.0001) %MON g__dynstat_g_salt_mean       =   0.0000000000000E+00
(PID.TID 0000.0001) %MON g__dynstat_g_salt_sd         =   0.0000000000000E+00
(PID.TID 0000.0001) %MON g__dynstat_g_salt_del2       =   0.0000000000000E+00
(PID.TID 0000.0001) %MON g__dynstat_g_sst_max         =   0.0000000000000E+00
(PID.TID 0000.0001) %MON g__dynstat_g_sst_min         =   0.0000000000000E+00
(PID.TID 0000.0001) %MON g__dynstat_g_sst_mean        =   0.0000000000000E+00
(PID.TID 0000.0001) %MON g__dynstat_g_sst_sd          =   0.0000000000000E+00
(PID.TID 0000.0001) %MON g__dynstat_g_sst_del2        =   0.0000000000000E+00
(PID.TID 0000.0001) %MON g__dynstat_g_sss_max         =   0.0000000000000E+00
(PID.TID 0000.0001) %MON g__dynstat_g_sss_min         =   0.0000000000000E+00
(PID.TID 0000.0001) %MON g__dynstat_g_sss_mean        =   0.0000000000000E+00
(PID.TID 0000.0001) %MON g__dynstat_g_sss_sd          =   0.0000000000000E+00
(PID.TID 0000.0001) %MON g__dynstat_g_sss_del2        =   0.0000000000000E+00
(PID.TID 0000.0001) %MON g__forcing_g_qnet_max        =   0.0000000000000E+00
(PID.TID 0000.0001) %MON g__forcing_g_qnet_min        =   0.0000000000000E+00
(PID.TID 0000.0001) %MON g__forcing_g_qnet_mean       =   0.0000000000000E+00
(PID.TID 0000.0001) %MON g__forcing_g_qnet_sd         =   0.0000000000000E+00
(PID.TID 0000.0001) %MON g__forcing_g_qnet_del2       =   0.0000000000000E+00
(PID.TID 0000.0001) %MON g__forcing_g_qsw_max         =   0.0000000000000E+00
(PID.TID 0000.0001) %MON g__forcing_g_qsw_min         =   0.0000000000000E+00
(PID.TID 0000.0001) %MON g__forcing_g_qsw_mean        =   0.0000000000000E+00
(PID.TID 0000.0001) %MON g__forcing_g_qsw_sd          =   0.0000000000000E+00
(PID.TID 0000.0001) %MON g__forcing_g_qsw_del2        =   0.0000000000000E+00
(PID.TID 0000.0001) %MON g__forcing_g_empmr_max       =   0.0000000000000E+00
(PID.TID 0000.0001) %MON g__forcing_g_empmr_min       =   0.0000000000000E+00
(PID.TID 0000.0001) %MON g__forcing_g_empmr_mean      =   0.0000000000000E+00
(PID.TID 0000.0001) %MON g__forcing_g_empmr_sd        =   0.0000000000000E+00
(PID.TID 0000.0001) %MON g__forcing_g_empmr_del2      =   0.0000000000000E+00
(PID.TID 0000.0001) %MON g__forcing_g_fu_max          =   0.0000000000000E+00
(PID.TID 0000.0001) %MON g__forcing_g_fu_min          =   0.0000000000000E+00
(PID.TID 0000.0001) %MON g__forcing_g_fu_mean         =   0.0000000000000E+00
(PID.TID 0000.0001) %MON g__forcing_g_fu_sd           =   0.0000000000000E+00
(PID.TID 0000.0001) %MON g__forcing_g_fu_del2         =   0.0000000000000E+00
(PID.TID 0000.0001) %MON g__forcing_g_fv_max          =   0.0000000000000E+00
(PID.TID 0000.0001) %MON g__forcing_g_fv_min          =   0.0000000000000E+00
(PID.TID 0000.0001) %MON g__forcing_g_fv_mean         =   0.0000000000000E+00
(PID.TID 0000.0001) %MON g__forcing_g_fv_sd           =   0.0000000000000E+00
(PID.TID 0000.0001) %MON g__forcing_g_fv_del2         =   0.0000000000000E+00
(PID.TID 0000.0001) %MON g__g_vcfl_g_uvel_max         =   0.0000000000000E+00
(PID.TID 0000.0001) %MON g__g_vcfl_g_vvel_max         =   0.0000000000000E+00
(PID.TID 0000.0001) %MON g__g_vcfl_g_wvel_max         =   0.0000000000000E+00
(PID.TID 0000.0001) %MON g__g_vcfl_g_W_hf_max         =   0.0000000000000E+00
(PID.TID 0000.0001) // =======================================================
(PID.TID 0000.0001) // End MONITOR dynamic field statistics
(PID.TID 0000.0001) // =======================================================
 myIter=            0
(PID.TID 0000.0001) // Model state written, timestep         0
(PID.TID 0000.0001) 
 cg2d: Sum(rhs),rhsMax =   0.00000000000000E+00  0.00000000000000E+00
 cg2d: Sum(rhs),rhsMax =   1.00000000000000E+00  5.58645366562891E-06
(PID.TID 0000.0001) // =======================================================
(PID.TID 0000.0001) // Begin MONITOR dynamic field statistics
(PID.TID 0000.0001) // =======================================================
(PID.TID 0000.0001) %MON g__time_tsnumber             =                     1
(PID.TID 0000.0001) %MON g__time_secondsf             =   3.6000000000000E+03
(PID.TID 0000.0001) %MON g__dynstat_g_eta_max         =   0.0000000000000E+00
(PID.TID 0000.0001) %MON g__dynstat_g_eta_min         =   0.0000000000000E+00
(PID.TID 0000.0001) %MON g__dynstat_g_eta_mean        =   0.0000000000000E+00
(PID.TID 0000.0001) %MON g__dynstat_g_eta_sd          =   0.0000000000000E+00
(PID.TID 0000.0001) %MON g__dynstat_g_eta_del2        =   0.0000000000000E+00
(PID.TID 0000.0001) %MON g__dynstat_g_uvel_max        =   1.3633589921114E-05
(PID.TID 0000.0001) %MON g__dynstat_g_uvel_min        =  -1.9627221011487E-05
(PID.TID 0000.0001) %MON g__dynstat_g_uvel_mean       =  -2.3521330710329E-23
(PID.TID 0000.0001) %MON g__dynstat_g_uvel_sd         =   3.3904059654773E-06
(PID.TID 0000.0001) %MON g__dynstat_g_uvel_del2       =   0.0000000000000E+00
(PID.TID 0000.0001) %MON g__dynstat_g_vvel_max        =   1.3633589921114E-05
(PID.TID 0000.0001) %MON g__dynstat_g_vvel_min        =  -1.9627221011487E-05
(PID.TID 0000.0001) %MON g__dynstat_g_vvel_mean       =  -2.3521330710329E-23
(PID.TID 0000.0001) %MON g__dynstat_g_vvel_sd         =   3.3904059654773E-06
(PID.TID 0000.0001) %MON g__dynstat_g_vvel_del2       =   0.0000000000000E+00
(PID.TID 0000.0001) %MON g__dynstat_g_wvel_max        =   0.0000000000000E+00
(PID.TID 0000.0001) %MON g__dynstat_g_wvel_min        =   0.0000000000000E+00
(PID.TID 0000.0001) %MON g__dynstat_g_wvel_mean       =   0.0000000000000E+00
(PID.TID 0000.0001) %MON g__dynstat_g_wvel_sd         =   0.0000000000000E+00
(PID.TID 0000.0001) %MON g__dynstat_g_wvel_del2       =   0.0000000000000E+00
(PID.TID 0000.0001) %MON g__dynstat_g_theta_max       =   6.2621625718941E-01
(PID.TID 0000.0001) %MON g__dynstat_g_theta_min       =   1.8688223586248-104
(PID.TID 0000.0001) %MON g__dynstat_g_theta_mean      =   1.9483302809492E-02
(PID.TID 0000.0001) %MON g__dynstat_g_theta_sd        =   9.3142380520646E-02
(PID.TID 0000.0001) %MON g__dynstat_g_theta_del2      =   0.0000000000000E+00
(PID.TID 0000.0001) %MON g__dynstat_g_salt_max        =   1.7972698624700E-03
(PID.TID 0000.0001) %MON g__dynstat_g_salt_min        =  -2.9480576040080E-03
(PID.TID 0000.0001) %MON g__dynstat_g_salt_mean       =  -1.2016748454410E-17
(PID.TID 0000.0001) %MON g__dynstat_g_salt_sd         =   4.9579777738760E-04
(PID.TID 0000.0001) %MON g__dynstat_g_salt_del2       =   0.0000000000000E+00
(PID.TID 0000.0001) %MON g__dynstat_g_sst_max         =   1.3663633922739E-01
(PID.TID 0000.0001) %MON g__dynstat_g_sst_min         =   1.3663633922739E-01
(PID.TID 0000.0001) %MON g__dynstat_g_sst_mean        =   1.3663633922739E-01
(PID.TID 0000.0001) %MON g__dynstat_g_sst_sd          =   0.0000000000000E+00
(PID.TID 0000.0001) %MON g__dynstat_g_sst_del2        =   0.0000000000000E+00
(PID.TID 0000.0001) %MON g__dynstat_g_sss_max         =   4.4631553937963E-04
(PID.TID 0000.0001) %MON g__dynstat_g_sss_min         =   4.4631553937963E-04
(PID.TID 0000.0001) %MON g__dynstat_g_sss_mean        =   4.4631553937963E-04
(PID.TID 0000.0001) %MON g__dynstat_g_sss_sd          =   0.0000000000000E+00
(PID.TID 0000.0001) %MON g__dynstat_g_sss_del2        =   0.0000000000000E+00
(PID.TID 0000.0001) %MON g__forcing_g_qnet_max        =   0.0000000000000E+00
(PID.TID 0000.0001) %MON g__forcing_g_qnet_min        =   0.0000000000000E+00
(PID.TID 0000.0001) %MON g__forcing_g_qnet_mean       =   0.0000000000000E+00
(PID.TID 0000.0001) %MON g__forcing_g_qnet_sd         =   0.0000000000000E+00
(PID.TID 0000.0001) %MON g__forcing_g_qnet_del2       =   0.0000000000000E+00
(PID.TID 0000.0001) %MON g__forcing_g_qsw_max         =   0.0000000000000E+00
(PID.TID 0000.0001) %MON g__forcing_g_qsw_min         =   0.0000000000000E+00
(PID.TID 0000.0001) %MON g__forcing_g_qsw_mean        =   0.0000000000000E+00
(PID.TID 0000.0001) %MON g__forcing_g_qsw_sd          =   0.0000000000000E+00
(PID.TID 0000.0001) %MON g__forcing_g_qsw_del2        =   0.0000000000000E+00
(PID.TID 0000.0001) %MON g__forcing_g_empmr_max       =   0.0000000000000E+00
(PID.TID 0000.0001) %MON g__forcing_g_empmr_min       =   0.0000000000000E+00
(PID.TID 0000.0001) %MON g__forcing_g_empmr_mean      =   0.0000000000000E+00
(PID.TID 0000.0001) %MON g__forcing_g_empmr_sd        =   0.0000000000000E+00
(PID.TID 0000.0001) %MON g__forcing_g_empmr_del2      =   0.0000000000000E+00
(PID.TID 0000.0001) %MON g__forcing_g_fu_max          =   0.0000000000000E+00
(PID.TID 0000.0001) %MON g__forcing_g_fu_min          =   0.0000000000000E+00
(PID.TID 0000.0001) %MON g__forcing_g_fu_mean         =   0.0000000000000E+00
(PID.TID 0000.0001) %MON g__forcing_g_fu_sd           =   0.0000000000000E+00
(PID.TID 0000.0001) %MON g__forcing_g_fu_del2         =   0.0000000000000E+00
(PID.TID 0000.0001) %MON g__forcing_g_fv_max          =   0.0000000000000E+00
(PID.TID 0000.0001) %MON g__forcing_g_fv_min          =   0.0000000000000E+00
(PID.TID 0000.0001) %MON g__forcing_g_fv_mean         =   0.0000000000000E+00
(PID.TID 0000.0001) %MON g__forcing_g_fv_sd           =   0.0000000000000E+00
(PID.TID 0000.0001) %MON g__forcing_g_fv_del2         =   0.0000000000000E+00
(PID.TID 0000.0001) %MON g__g_vcfl_g_uvel_max         =   1.4131599128271E-05
(PID.TID 0000.0001) %MON g__g_vcfl_g_vvel_max         =   1.4131599128271E-05
(PID.TID 0000.0001) %MON g__g_vcfl_g_wvel_max         =   0.0000000000000E+00
(PID.TID 0000.0001) %MON g__g_vcfl_g_W_hf_max         =   0.0000000000000E+00
(PID.TID 0000.0001) // =======================================================
(PID.TID 0000.0001) // End MONITOR dynamic field statistics
(PID.TID 0000.0001) // =======================================================
 myIter=            1
(PID.TID 0000.0001) // Model state written, timestep         1
(PID.TID 0000.0001) 
 cg2d: Sum(rhs),rhsMax =  -1.00000000000000E+00  1.91641110931717E-05
 cg2d: Sum(rhs),rhsMax =   1.00000000000000E+00  1.08504365899875E-05
(PID.TID 0000.0001) // =======================================================
(PID.TID 0000.0001) // Begin MONITOR dynamic field statistics
(PID.TID 0000.0001) // =======================================================
(PID.TID 0000.0001) %MON g__time_tsnumber             =                     2
(PID.TID 0000.0001) %MON g__time_secondsf             =   7.2000000000000E+03
(PID.TID 0000.0001) %MON g__dynstat_g_eta_max         =   5.0990713883835E-03
(PID.TID 0000.0001) %MON g__dynstat_g_eta_min         =   5.0990713883835E-03
(PID.TID 0000.0001) %MON g__dynstat_g_eta_mean        =   5.0990713883835E-03
(PID.TID 0000.0001) %MON g__dynstat_g_eta_sd          =   0.0000000000000E+00
(PID.TID 0000.0001) %MON g__dynstat_g_eta_del2        =   0.0000000000000E+00
(PID.TID 0000.0001) %MON g__dynstat_g_uvel_max        =   9.6097892412277E-04
(PID.TID 0000.0001) %MON g__dynstat_g_uvel_min        =  -5.8901315453515E-04
(PID.TID 0000.0001) %MON g__dynstat_g_uvel_mean       =   6.9043316301114E-08
(PID.TID 0000.0001) %MON g__dynstat_g_uvel_sd         =   1.6156180603722E-04
(PID.TID 0000.0001) %MON g__dynstat_g_uvel_del2       =   0.0000000000000E+00
(PID.TID 0000.0001) %MON g__dynstat_g_vvel_max        =   6.3554267245793E-04
(PID.TID 0000.0001) %MON g__dynstat_g_vvel_min        =  -3.5847241844157E-04
(PID.TID 0000.0001) %MON g__dynstat_g_vvel_mean       =   6.9043316301125E-08
(PID.TID 0000.0001) %MON g__dynstat_g_vvel_sd         =   1.0610683065156E-04
(PID.TID 0000.0001) %MON g__dynstat_g_vvel_del2       =   0.0000000000000E+00
(PID.TID 0000.0001) %MON g__dynstat_g_wvel_max        =   0.0000000000000E+00
(PID.TID 0000.0001) %MON g__dynstat_g_wvel_min        =   0.0000000000000E+00
(PID.TID 0000.0001) %MON g__dynstat_g_wvel_mean       =   0.0000000000000E+00
(PID.TID 0000.0001) %MON g__dynstat_g_wvel_sd         =   0.0000000000000E+00
(PID.TID 0000.0001) %MON g__dynstat_g_wvel_del2       =   0.0000000000000E+00
(PID.TID 0000.0001) %MON g__dynstat_g_theta_max       =   3.2296748037187E-01
(PID.TID 0000.0001) %MON g__dynstat_g_theta_min       =   7.0437241217579-104
(PID.TID 0000.0001) %MON g__dynstat_g_theta_mean      =   1.8647195039177E-02
(PID.TID 0000.0001) %MON g__dynstat_g_theta_sd        =   6.6292012176695E-02
(PID.TID 0000.0001) %MON g__dynstat_g_theta_del2      =   0.0000000000000E+00
(PID.TID 0000.0001) %MON g__dynstat_g_salt_max        =   2.5753317591972E-02
(PID.TID 0000.0001) %MON g__dynstat_g_salt_min        =  -1.9355515759500E-02
(PID.TID 0000.0001) %MON g__dynstat_g_salt_mean       =  -2.0172333441903E-04
(PID.TID 0000.0001) %MON g__dynstat_g_salt_sd         =   4.7950984748317E-03
(PID.TID 0000.0001) %MON g__dynstat_g_salt_del2       =   0.0000000000000E+00
(PID.TID 0000.0001) %MON g__dynstat_g_sst_max         =   1.6809557729592E-01
(PID.TID 0000.0001) %MON g__dynstat_g_sst_min         =   1.6809557729592E-01
(PID.TID 0000.0001) %MON g__dynstat_g_sst_mean        =   1.6809557729592E-01
(PID.TID 0000.0001) %MON g__dynstat_g_sst_sd          =   0.0000000000000E+00
(PID.TID 0000.0001) %MON g__dynstat_g_sst_del2        =   0.0000000000000E+00
(PID.TID 0000.0001) %MON g__dynstat_g_sss_max         =  -6.9529807358144E-03
(PID.TID 0000.0001) %MON g__dynstat_g_sss_min         =  -6.9529807358144E-03
(PID.TID 0000.0001) %MON g__dynstat_g_sss_mean        =  -6.9529807358144E-03
(PID.TID 0000.0001) %MON g__dynstat_g_sss_sd          =   0.0000000000000E+00
(PID.TID 0000.0001) %MON g__dynstat_g_sss_del2        =   0.0000000000000E+00
(PID.TID 0000.0001) %MON g__forcing_g_qnet_max        =   4.8798325137951E+02
(PID.TID 0000.0001) %MON g__forcing_g_qnet_min        =   4.8798325137951E+02
(PID.TID 0000.0001) %MON g__forcing_g_qnet_mean       =   4.8798325137951E+02
(PID.TID 0000.0001) %MON g__forcing_g_qnet_sd         =   0.0000000000000E+00
(PID.TID 0000.0001) %MON g__forcing_g_qnet_del2       =   0.0000000000000E+00
(PID.TID 0000.0001) %MON g__forcing_g_qsw_max         =   0.0000000000000E+00
(PID.TID 0000.0001) %MON g__forcing_g_qsw_min         =   0.0000000000000E+00
(PID.TID 0000.0001) %MON g__forcing_g_qsw_mean        =   0.0000000000000E+00
(PID.TID 0000.0001) %MON g__forcing_g_qsw_sd          =   0.0000000000000E+00
(PID.TID 0000.0001) %MON g__forcing_g_qsw_del2        =   0.0000000000000E+00
(PID.TID 0000.0001) %MON g__forcing_g_empmr_max       =  -1.4546517544069E-03
(PID.TID 0000.0001) %MON g__forcing_g_empmr_min       =  -1.4546517544069E-03
(PID.TID 0000.0001) %MON g__forcing_g_empmr_mean      =  -1.4546517544069E-03
(PID.TID 0000.0001) %MON g__forcing_g_empmr_sd        =   0.0000000000000E+00
(PID.TID 0000.0001) %MON g__forcing_g_empmr_del2      =   0.0000000000000E+00
(PID.TID 0000.0001) %MON g__forcing_g_fu_max          =   6.3183986428618E-06
(PID.TID 0000.0001) %MON g__forcing_g_fu_min          =   6.3183986428618E-06
(PID.TID 0000.0001) %MON g__forcing_g_fu_mean         =   6.3183986428618E-06
(PID.TID 0000.0001) %MON g__forcing_g_fu_sd           =   0.0000000000000E+00
(PID.TID 0000.0001) %MON g__forcing_g_fu_del2         =   0.0000000000000E+00
(PID.TID 0000.0001) %MON g__forcing_g_fv_max          =   6.3183986428618E-06
(PID.TID 0000.0001) %MON g__forcing_g_fv_min          =   6.3183986428618E-06
(PID.TID 0000.0001) %MON g__forcing_g_fv_mean         =   6.3183986428618E-06
(PID.TID 0000.0001) %MON g__forcing_g_fv_sd           =   0.0000000000000E+00
(PID.TID 0000.0001) %MON g__forcing_g_fv_del2         =   0.0000000000000E+00
(PID.TID 0000.0001) %MON g__g_vcfl_g_uvel_max         =   6.9190482536840E-04
(PID.TID 0000.0001) %MON g__g_vcfl_g_vvel_max         =   4.5759072416971E-04
(PID.TID 0000.0001) %MON g__g_vcfl_g_wvel_max         =   0.0000000000000E+00
(PID.TID 0000.0001) %MON g__g_vcfl_g_W_hf_max         =   0.0000000000000E+00
(PID.TID 0000.0001) // =======================================================
(PID.TID 0000.0001) // End MONITOR dynamic field statistics
(PID.TID 0000.0001) // =======================================================
 myIter=            2
(PID.TID 0000.0001) // Model state written, timestep         2
(PID.TID 0000.0001) 
 cg2d: Sum(rhs),rhsMax =  -1.00000000000000E+00  4.26157073870351E-05
 cg2d: Sum(rhs),rhsMax =   1.00000000000000E+00  1.54115956505727E-05
(PID.TID 0000.0001) // =======================================================
(PID.TID 0000.0001) // Begin MONITOR dynamic field statistics
(PID.TID 0000.0001) // =======================================================
(PID.TID 0000.0001) %MON g__time_tsnumber             =                     3
(PID.TID 0000.0001) %MON g__time_secondsf             =   1.0800000000000E+04
(PID.TID 0000.0001) %MON g__dynstat_g_eta_max         =   1.1338931045453E-02
(PID.TID 0000.0001) %MON g__dynstat_g_eta_min         =   1.1338931045453E-02
(PID.TID 0000.0001) %MON g__dynstat_g_eta_mean        =   1.1338931045453E-02
(PID.TID 0000.0001) %MON g__dynstat_g_eta_sd          =   0.0000000000000E+00
(PID.TID 0000.0001) %MON g__dynstat_g_eta_del2        =   0.0000000000000E+00
(PID.TID 0000.0001) %MON g__dynstat_g_uvel_max        =   2.8835582050497E-03
(PID.TID 0000.0001) %MON g__dynstat_g_uvel_min        =  -1.8567914143127E-03
(PID.TID 0000.0001) %MON g__dynstat_g_uvel_mean       =   1.7020805005172E-07
(PID.TID 0000.0001) %MON g__dynstat_g_uvel_sd         =   4.9567840279205E-04
(PID.TID 0000.0001) %MON g__dynstat_g_uvel_del2       =   0.0000000000000E+00
(PID.TID 0000.0001) %MON g__dynstat_g_vvel_max        =   1.0451150256822E-03
(PID.TID 0000.0001) %MON g__dynstat_g_vvel_min        =  -6.0387557878950E-04
(PID.TID 0000.0001) %MON g__dynstat_g_vvel_mean       =   9.0670149672841E-08
(PID.TID 0000.0001) %MON g__dynstat_g_vvel_sd         =   1.7640379831697E-04
(PID.TID 0000.0001) %MON g__dynstat_g_vvel_del2       =   0.0000000000000E+00
(PID.TID 0000.0001) %MON g__dynstat_g_wvel_max        =   0.0000000000000E+00
(PID.TID 0000.0001) %MON g__dynstat_g_wvel_min        =   0.0000000000000E+00
(PID.TID 0000.0001) %MON g__dynstat_g_wvel_mean       =   0.0000000000000E+00
(PID.TID 0000.0001) %MON g__dynstat_g_wvel_sd         =   0.0000000000000E+00
(PID.TID 0000.0001) %MON g__dynstat_g_wvel_del2       =   0.0000000000000E+00
(PID.TID 0000.0001) %MON g__dynstat_g_theta_max       =   9.1403544877126E-01
(PID.TID 0000.0001) %MON g__dynstat_g_theta_min       =  -1.2449168468429E-01
(PID.TID 0000.0001) %MON g__dynstat_g_theta_mean      =   1.7623978561861E-02
(PID.TID 0000.0001) %MON g__dynstat_g_theta_sd        =   1.2814266659553E-01
(PID.TID 0000.0001) %MON g__dynstat_g_theta_del2      =   0.0000000000000E+00
(PID.TID 0000.0001) %MON g__dynstat_g_salt_max        =   8.0362720141259E-02
(PID.TID 0000.0001) %MON g__dynstat_g_salt_min        =  -5.2030920708976E-02
(PID.TID 0000.0001) %MON g__dynstat_g_salt_mean       =  -4.4860423055574E-04
(PID.TID 0000.0001) %MON g__dynstat_g_salt_sd         =   1.4302467149529E-02
(PID.TID 0000.0001) %MON g__dynstat_g_salt_del2       =   0.0000000000000E+00
(PID.TID 0000.0001) %MON g__dynstat_g_sst_max         =   8.1688843402385E-02
(PID.TID 0000.0001) %MON g__dynstat_g_sst_min         =   8.1688843402385E-02
(PID.TID 0000.0001) %MON g__dynstat_g_sst_mean        =   8.1688843402385E-02
(PID.TID 0000.0001) %MON g__dynstat_g_sst_sd          =   0.0000000000000E+00
(PID.TID 0000.0001) %MON g__dynstat_g_sst_del2        =   0.0000000000000E+00
(PID.TID 0000.0001) %MON g__dynstat_g_sss_max         =  -2.2112899129120E-02
(PID.TID 0000.0001) %MON g__dynstat_g_sss_min         =  -2.2112899129120E-02
(PID.TID 0000.0001) %MON g__dynstat_g_sss_mean        =  -2.2112899129120E-02
(PID.TID 0000.0001) %MON g__dynstat_g_sss_sd          =   0.0000000000000E+00
(PID.TID 0000.0001) %MON g__dynstat_g_sss_del2        =   0.0000000000000E+00
(PID.TID 0000.0001) %MON g__forcing_g_qnet_max        =   5.9718677566895E+02
(PID.TID 0000.0001) %MON g__forcing_g_qnet_min        =   5.9718677566895E+02
(PID.TID 0000.0001) %MON g__forcing_g_qnet_mean       =   5.9718677566895E+02
(PID.TID 0000.0001) %MON g__forcing_g_qnet_sd         =   0.0000000000000E+00
(PID.TID 0000.0001) %MON g__forcing_g_qnet_del2       =   0.0000000000000E+00
(PID.TID 0000.0001) %MON g__forcing_g_qsw_max         =  -9.3218130263435E-04
(PID.TID 0000.0001) %MON g__forcing_g_qsw_min         =  -9.3218130263435E-04
(PID.TID 0000.0001) %MON g__forcing_g_qsw_mean        =  -9.3218130263435E-04
(PID.TID 0000.0001) %MON g__forcing_g_qsw_sd          =   0.0000000000000E+00
(PID.TID 0000.0001) %MON g__forcing_g_qsw_del2        =   0.0000000000000E+00
(PID.TID 0000.0001) %MON g__forcing_g_empmr_max       =  -1.7800932966122E-03
(PID.TID 0000.0001) %MON g__forcing_g_empmr_min       =  -1.7800932966122E-03
(PID.TID 0000.0001) %MON g__forcing_g_empmr_mean      =  -1.7800932966122E-03
(PID.TID 0000.0001) %MON g__forcing_g_empmr_sd        =   0.0000000000000E+00
(PID.TID 0000.0001) %MON g__forcing_g_empmr_del2      =   0.0000000000000E+00
(PID.TID 0000.0001) %MON g__forcing_g_fu_max          =   7.9879453013358E-06
(PID.TID 0000.0001) %MON g__forcing_g_fu_min          =   7.9879453013358E-06
(PID.TID 0000.0001) %MON g__forcing_g_fu_mean         =   7.9879453013358E-06
(PID.TID 0000.0001) %MON g__forcing_g_fu_sd           =   0.0000000000000E+00
(PID.TID 0000.0001) %MON g__forcing_g_fu_del2         =   0.0000000000000E+00
(PID.TID 0000.0001) %MON g__forcing_g_fv_max          =   7.9879453013358E-06
(PID.TID 0000.0001) %MON g__forcing_g_fv_min          =   7.9879453013358E-06
(PID.TID 0000.0001) %MON g__forcing_g_fv_mean         =   7.9879453013358E-06
(PID.TID 0000.0001) %MON g__forcing_g_fv_sd           =   0.0000000000000E+00
(PID.TID 0000.0001) %MON g__forcing_g_fv_del2         =   0.0000000000000E+00
(PID.TID 0000.0001) %MON g__g_vcfl_g_uvel_max         =   2.0761619076358E-03
(PID.TID 0000.0001) %MON g__g_vcfl_g_vvel_max         =   7.5248281849115E-04
(PID.TID 0000.0001) %MON g__g_vcfl_g_wvel_max         =   0.0000000000000E+00
(PID.TID 0000.0001) %MON g__g_vcfl_g_W_hf_max         =   0.0000000000000E+00
(PID.TID 0000.0001) // =======================================================
(PID.TID 0000.0001) // End MONITOR dynamic field statistics
(PID.TID 0000.0001) // =======================================================
 myIter=            3
(PID.TID 0000.0001) // Model state written, timestep         3
(PID.TID 0000.0001) 
 cg2d: Sum(rhs),rhsMax =  -1.00000000000000E+00  5.39488359703085E-05
 cg2d: Sum(rhs),rhsMax =   1.00000000000000E+00  1.91662515894767E-05
(PID.TID 0000.0001) // =======================================================
(PID.TID 0000.0001) // Begin MONITOR dynamic field statistics
(PID.TID 0000.0001) // =======================================================
(PID.TID 0000.0001) %MON g__time_tsnumber             =                     4
(PID.TID 0000.0001) %MON g__time_secondsf             =   1.4400000000000E+04
(PID.TID 0000.0001) %MON g__dynstat_g_eta_max         =   1.4354381718786E-02
(PID.TID 0000.0001) %MON g__dynstat_g_eta_min         =   1.4354381718786E-02
(PID.TID 0000.0001) %MON g__dynstat_g_eta_mean        =   1.4354381718786E-02
(PID.TID 0000.0001) %MON g__dynstat_g_eta_sd          =   0.0000000000000E+00
(PID.TID 0000.0001) %MON g__dynstat_g_eta_del2        =   0.0000000000000E+00
(PID.TID 0000.0001) %MON g__dynstat_g_uvel_max        =   4.2632711763678E-03
(PID.TID 0000.0001) %MON g__dynstat_g_uvel_min        =  -2.6174332234078E-03
(PID.TID 0000.0001) %MON g__dynstat_g_uvel_mean       =   2.3496177118432E-07
(PID.TID 0000.0001) %MON g__dynstat_g_uvel_sd         =   7.6577942007667E-04
(PID.TID 0000.0001) %MON g__dynstat_g_uvel_del2       =   0.0000000000000E+00
(PID.TID 0000.0001) %MON g__dynstat_g_vvel_max        =   6.1387080424511E-04
(PID.TID 0000.0001) %MON g__dynstat_g_vvel_min        =  -6.1997800895126E-04
(PID.TID 0000.0001) %MON g__dynstat_g_vvel_mean       =   3.4984740406160E-08
(PID.TID 0000.0001) %MON g__dynstat_g_vvel_sd         =   1.4697015732647E-04
(PID.TID 0000.0001) %MON g__dynstat_g_vvel_del2       =   0.0000000000000E+00
(PID.TID 0000.0001) %MON g__dynstat_g_wvel_max        =   0.0000000000000E+00
(PID.TID 0000.0001) %MON g__dynstat_g_wvel_min        =   0.0000000000000E+00
(PID.TID 0000.0001) %MON g__dynstat_g_wvel_mean       =   0.0000000000000E+00
(PID.TID 0000.0001) %MON g__dynstat_g_wvel_sd         =   0.0000000000000E+00
(PID.TID 0000.0001) %MON g__dynstat_g_wvel_del2       =   0.0000000000000E+00
(PID.TID 0000.0001) %MON g__dynstat_g_theta_max       =   1.5276327536910E+00
(PID.TID 0000.0001) %MON g__dynstat_g_theta_min       =  -4.3108228919974E-01
(PID.TID 0000.0001) %MON g__dynstat_g_theta_mean      =   1.7129253989830E-02
(PID.TID 0000.0001) %MON g__dynstat_g_theta_sd        =   2.2215089708412E-01
(PID.TID 0000.0001) %MON g__dynstat_g_theta_del2      =   0.0000000000000E+00
(PID.TID 0000.0001) %MON g__dynstat_g_salt_max        =   1.3613917856052E-01
(PID.TID 0000.0001) %MON g__dynstat_g_salt_min        =  -7.8046129040999E-02
(PID.TID 0000.0001) %MON g__dynstat_g_salt_mean       =  -5.6794308207241E-04
(PID.TID 0000.0001) %MON g__dynstat_g_salt_sd         =   2.3548555870851E-02
(PID.TID 0000.0001) %MON g__dynstat_g_salt_del2       =   0.0000000000000E+00
(PID.TID 0000.0001) %MON g__dynstat_g_sst_max         =  -5.9058872965341E-02
(PID.TID 0000.0001) %MON g__dynstat_g_sst_min         =  -5.9058872965341E-02
(PID.TID 0000.0001) %MON g__dynstat_g_sst_mean        =  -5.9058872965341E-02
(PID.TID 0000.0001) %MON g__dynstat_g_sst_sd          =   0.0000000000000E+00
(PID.TID 0000.0001) %MON g__dynstat_g_sst_del2        =   0.0000000000000E+00
(PID.TID 0000.0001) %MON g__dynstat_g_sss_max         =  -3.8738001621383E-02
(PID.TID 0000.0001) %MON g__dynstat_g_sss_min         =  -3.8738001621383E-02
(PID.TID 0000.0001) %MON g__dynstat_g_sss_mean        =  -3.8738001621383E-02
(PID.TID 0000.0001) %MON g__dynstat_g_sss_sd          =   0.0000000000000E+00
(PID.TID 0000.0001) %MON g__dynstat_g_sss_del2        =   0.0000000000000E+00
(PID.TID 0000.0001) %MON g__forcing_g_qnet_max        =   2.8873945891671E+02
(PID.TID 0000.0001) %MON g__forcing_g_qnet_min        =   2.8873945891671E+02
(PID.TID 0000.0001) %MON g__forcing_g_qnet_mean       =   2.8873945891671E+02
(PID.TID 0000.0001) %MON g__forcing_g_qnet_sd         =   0.0000000000000E+00
(PID.TID 0000.0001) %MON g__forcing_g_qnet_del2       =   0.0000000000000E+00
(PID.TID 0000.0001) %MON g__forcing_g_qsw_max         =  -6.1177161160536E-03
(PID.TID 0000.0001) %MON g__forcing_g_qsw_min         =  -6.1177161160536E-03
(PID.TID 0000.0001) %MON g__forcing_g_qsw_mean        =  -6.1177161160536E-03
(PID.TID 0000.0001) %MON g__forcing_g_qsw_sd          =   0.0000000000000E+00
(PID.TID 0000.0001) %MON g__forcing_g_qsw_del2        =   0.0000000000000E+00
(PID.TID 0000.0001) %MON g__forcing_g_empmr_max       =  -8.6024106708595E-04
(PID.TID 0000.0001) %MON g__forcing_g_empmr_min       =  -8.6024106708595E-04
(PID.TID 0000.0001) %MON g__forcing_g_empmr_mean      =  -8.6024106708595E-04
(PID.TID 0000.0001) %MON g__forcing_g_empmr_sd        =   0.0000000000000E+00
(PID.TID 0000.0001) %MON g__forcing_g_empmr_del2      =   0.0000000000000E+00
(PID.TID 0000.0001) %MON g__forcing_g_fu_max          =   5.5067091997710E-06
(PID.TID 0000.0001) %MON g__forcing_g_fu_min          =   5.5067091997710E-06
(PID.TID 0000.0001) %MON g__forcing_g_fu_mean         =   5.5067091997710E-06
(PID.TID 0000.0001) %MON g__forcing_g_fu_sd           =   0.0000000000000E+00
(PID.TID 0000.0001) %MON g__forcing_g_fu_del2         =   0.0000000000000E+00
(PID.TID 0000.0001) %MON g__forcing_g_fv_max          =   5.5067091997710E-06
(PID.TID 0000.0001) %MON g__forcing_g_fv_min          =   5.5067091997710E-06
(PID.TID 0000.0001) %MON g__forcing_g_fv_mean         =   5.5067091997710E-06
(PID.TID 0000.0001) %MON g__forcing_g_fv_sd           =   0.0000000000000E+00
(PID.TID 0000.0001) %MON g__forcing_g_fv_del2         =   0.0000000000000E+00
(PID.TID 0000.0001) %MON g__g_vcfl_g_uvel_max         =   3.0695552469848E-03
(PID.TID 0000.0001) %MON g__g_vcfl_g_vvel_max         =   4.4638416644491E-04
(PID.TID 0000.0001) %MON g__g_vcfl_g_wvel_max         =   0.0000000000000E+00
(PID.TID 0000.0001) %MON g__g_vcfl_g_W_hf_max         =   0.0000000000000E+00
(PID.TID 0000.0001) // =======================================================
(PID.TID 0000.0001) // End MONITOR dynamic field statistics
(PID.TID 0000.0001) // =======================================================
 myIter=            4
(PID.TID 0000.0001) // Model state written, timestep         4
(PID.TID 0000.0001) 
 cg2d: Sum(rhs),rhsMax =  -1.00000000000000E+00  4.57845379281352E-05
 cg2d: Sum(rhs),rhsMax =   1.00000000000000E+00  2.21776143798627E-05
(PID.TID 0000.0001) // =======================================================
(PID.TID 0000.0001) // Begin MONITOR dynamic field statistics
(PID.TID 0000.0001) // =======================================================
(PID.TID 0000.0001) %MON g__time_tsnumber             =                     5
(PID.TID 0000.0001) %MON g__time_secondsf             =   1.8000000000000E+04
(PID.TID 0000.0001) %MON g__dynstat_g_eta_max         =   1.2182074412135E-02
(PID.TID 0000.0001) %MON g__dynstat_g_eta_min         =   1.2182074412135E-02
(PID.TID 0000.0001) %MON g__dynstat_g_eta_mean        =   1.2182074412135E-02
(PID.TID 0000.0001) %MON g__dynstat_g_eta_sd          =   0.0000000000000E+00
(PID.TID 0000.0001) %MON g__dynstat_g_eta_del2        =   0.0000000000000E+00
(PID.TID 0000.0001) %MON g__dynstat_g_uvel_max        =   3.3446421168742E-03
(PID.TID 0000.0001) %MON g__dynstat_g_uvel_min        =  -2.6621671784691E-03
(PID.TID 0000.0001) %MON g__dynstat_g_uvel_mean       =   2.1699994875807E-07
(PID.TID 0000.0001) %MON g__dynstat_g_uvel_sd         =   6.7702669108496E-04
(PID.TID 0000.0001) %MON g__dynstat_g_uvel_del2       =   0.0000000000000E+00
(PID.TID 0000.0001) %MON g__dynstat_g_vvel_max        =   2.0162805941521E-03
(PID.TID 0000.0001) %MON g__dynstat_g_vvel_min        =  -1.1551890662679E-03
(PID.TID 0000.0001) %MON g__dynstat_g_vvel_mean       =  -8.2116581555703E-08
(PID.TID 0000.0001) %MON g__dynstat_g_vvel_sd         =   3.4541573553217E-04
(PID.TID 0000.0001) %MON g__dynstat_g_vvel_del2       =   0.0000000000000E+00
(PID.TID 0000.0001) %MON g__dynstat_g_wvel_max        =   0.0000000000000E+00
(PID.TID 0000.0001) %MON g__dynstat_g_wvel_min        =   0.0000000000000E+00
(PID.TID 0000.0001) %MON g__dynstat_g_wvel_mean       =   0.0000000000000E+00
(PID.TID 0000.0001) %MON g__dynstat_g_wvel_sd         =   0.0000000000000E+00
(PID.TID 0000.0001) %MON g__dynstat_g_wvel_del2       =   0.0000000000000E+00
(PID.TID 0000.0001) %MON g__dynstat_g_theta_max       =   1.7921413998526E+00
(PID.TID 0000.0001) %MON g__dynstat_g_theta_min       =  -4.7589353493372E-01
(PID.TID 0000.0001) %MON g__dynstat_g_theta_mean      =   1.7484900126655E-02
(PID.TID 0000.0001) %MON g__dynstat_g_theta_sd        =   2.6167329996612E-01
(PID.TID 0000.0001) %MON g__dynstat_g_theta_del2      =   0.0000000000000E+00
(PID.TID 0000.0001) %MON g__dynstat_g_salt_max        =   1.5882276186017E-01
(PID.TID 0000.0001) %MON g__dynstat_g_salt_min        =  -7.8717422250024E-02
(PID.TID 0000.0001) %MON g__dynstat_g_salt_mean       =  -4.8203290554601E-04
(PID.TID 0000.0001) %MON g__dynstat_g_salt_sd         =   2.6827272823153E-02
(PID.TID 0000.0001) %MON g__dynstat_g_salt_del2       =   0.0000000000000E+00
(PID.TID 0000.0001) %MON g__dynstat_g_sst_max         =  -1.6374484206562E-01
(PID.TID 0000.0001) %MON g__dynstat_g_sst_min         =  -1.6374484206562E-01
(PID.TID 0000.0001) %MON g__dynstat_g_sst_mean        =  -1.6374484206562E-01
(PID.TID 0000.0001) %MON g__dynstat_g_sst_sd          =   0.0000000000000E+00
(PID.TID 0000.0001) %MON g__dynstat_g_sst_del2        =   0.0000000000000E+00
(PID.TID 0000.0001) %MON g__dynstat_g_sss_max         =  -4.8319281269215E-02
(PID.TID 0000.0001) %MON g__dynstat_g_sss_min         =  -4.8319281269215E-02
(PID.TID 0000.0001) %MON g__dynstat_g_sss_mean        =  -4.8319281269215E-02
(PID.TID 0000.0001) %MON g__dynstat_g_sss_sd          =   0.0000000000000E+00
(PID.TID 0000.0001) %MON g__dynstat_g_sss_del2        =   0.0000000000000E+00
(PID.TID 0000.0001) %MON g__forcing_g_qnet_max        =  -2.0756816806386E+02
(PID.TID 0000.0001) %MON g__forcing_g_qnet_min        =  -2.0756816806386E+02
(PID.TID 0000.0001) %MON g__forcing_g_qnet_mean       =  -2.0756816806386E+02
(PID.TID 0000.0001) %MON g__forcing_g_qnet_sd         =   0.0000000000000E+00
(PID.TID 0000.0001) %MON g__forcing_g_qnet_del2       =   0.0000000000000E+00
(PID.TID 0000.0001) %MON g__forcing_g_qsw_max         =  -1.0832607177504E-02
(PID.TID 0000.0001) %MON g__forcing_g_qsw_min         =  -1.0832607177504E-02
(PID.TID 0000.0001) %MON g__forcing_g_qsw_mean        =  -1.0832607177504E-02
(PID.TID 0000.0001) %MON g__forcing_g_qsw_sd          =   0.0000000000000E+00
(PID.TID 0000.0001) %MON g__forcing_g_qsw_del2        =   0.0000000000000E+00
(PID.TID 0000.0001) %MON g__forcing_g_empmr_max       =   6.1971100109109E-04
(PID.TID 0000.0001) %MON g__forcing_g_empmr_min       =   6.1971100109109E-04
(PID.TID 0000.0001) %MON g__forcing_g_empmr_mean      =   6.1971100109109E-04
(PID.TID 0000.0001) %MON g__forcing_g_empmr_sd        =   0.0000000000000E+00
(PID.TID 0000.0001) %MON g__forcing_g_empmr_del2      =   0.0000000000000E+00
(PID.TID 0000.0001) %MON g__forcing_g_fu_max          =   3.6942730954571E-07
(PID.TID 0000.0001) %MON g__forcing_g_fu_min          =   3.6942730954571E-07
(PID.TID 0000.0001) %MON g__forcing_g_fu_mean         =   3.6942730954571E-07
(PID.TID 0000.0001) %MON g__forcing_g_fu_sd           =   0.0000000000000E+00
(PID.TID 0000.0001) %MON g__forcing_g_fu_del2         =   0.0000000000000E+00
(PID.TID 0000.0001) %MON g__forcing_g_fv_max          =   3.6942730954571E-07
(PID.TID 0000.0001) %MON g__forcing_g_fv_min          =   3.6942730954571E-07
(PID.TID 0000.0001) %MON g__forcing_g_fv_mean         =   3.6942730954571E-07
(PID.TID 0000.0001) %MON g__forcing_g_fv_sd           =   0.0000000000000E+00
(PID.TID 0000.0001) %MON g__forcing_g_fv_del2         =   0.0000000000000E+00
(PID.TID 0000.0001) %MON g__g_vcfl_g_uvel_max         =   2.4081423241494E-03
(PID.TID 0000.0001) %MON g__g_vcfl_g_vvel_max         =   1.4517220277895E-03
(PID.TID 0000.0001) %MON g__g_vcfl_g_wvel_max         =   0.0000000000000E+00
(PID.TID 0000.0001) %MON g__g_vcfl_g_W_hf_max         =   0.0000000000000E+00
(PID.TID 0000.0001) // =======================================================
(PID.TID 0000.0001) // End MONITOR dynamic field statistics
(PID.TID 0000.0001) // =======================================================
 myIter=            5
(PID.TID 0000.0001) // Model state written, timestep         5
(PID.TID 0000.0001) 
 cg2d: Sum(rhs),rhsMax =  -1.00000000000000E+00  2.32779135893630E-05
 cg2d: Sum(rhs),rhsMax =   1.00000000000000E+00  2.45952871586638E-05
(PID.TID 0000.0001) // =======================================================
(PID.TID 0000.0001) // Begin MONITOR dynamic field statistics
(PID.TID 0000.0001) // =======================================================
(PID.TID 0000.0001) %MON g__time_tsnumber             =                     6
(PID.TID 0000.0001) %MON g__time_secondsf             =   2.1600000000000E+04
(PID.TID 0000.0001) %MON g__dynstat_g_eta_max         =   6.1936472079368E-03
(PID.TID 0000.0001) %MON g__dynstat_g_eta_min         =   6.1936472079368E-03
(PID.TID 0000.0001) %MON g__dynstat_g_eta_mean        =   6.1936472079368E-03
(PID.TID 0000.0001) %MON g__dynstat_g_eta_sd          =   0.0000000000000E+00
(PID.TID 0000.0001) %MON g__dynstat_g_eta_del2        =   0.0000000000000E+00
(PID.TID 0000.0001) %MON g__dynstat_g_uvel_max        =   1.4061242994111E-03
(PID.TID 0000.0001) %MON g__dynstat_g_uvel_min        =  -1.3385679222112E-03
(PID.TID 0000.0001) %MON g__dynstat_g_uvel_mean       =   9.8063458405263E-08
(PID.TID 0000.0001) %MON g__dynstat_g_uvel_sd         =   2.7436643710186E-04
(PID.TID 0000.0001) %MON g__dynstat_g_uvel_del2       =   0.0000000000000E+00
(PID.TID 0000.0001) %MON g__dynstat_g_vvel_max        =   2.8106610033393E-03
(PID.TID 0000.0001) %MON g__dynstat_g_vvel_min        =  -2.5293520380101E-03
(PID.TID 0000.0001) %MON g__dynstat_g_vvel_mean       =  -2.2043744491348E-07
(PID.TID 0000.0001) %MON g__dynstat_g_vvel_sd         =   5.3809756198687E-04
(PID.TID 0000.0001) %MON g__dynstat_g_vvel_del2       =   0.0000000000000E+00
(PID.TID 0000.0001) %MON g__dynstat_g_wvel_max        =   0.0000000000000E+00
(PID.TID 0000.0001) %MON g__dynstat_g_wvel_min        =   0.0000000000000E+00
(PID.TID 0000.0001) %MON g__dynstat_g_wvel_mean       =   0.0000000000000E+00
(PID.TID 0000.0001) %MON g__dynstat_g_wvel_sd         =   0.0000000000000E+00
(PID.TID 0000.0001) %MON g__dynstat_g_wvel_del2       =   0.0000000000000E+00
(PID.TID 0000.0001) %MON g__dynstat_g_theta_max       =   1.5800603993482E+00
(PID.TID 0000.0001) %MON g__dynstat_g_theta_min       =  -2.4696707553684E-01
(PID.TID 0000.0001) %MON g__dynstat_g_theta_mean      =   1.8466238805051E-02
(PID.TID 0000.0001) %MON g__dynstat_g_theta_sd        =   2.2570775582951E-01
(PID.TID 0000.0001) %MON g__dynstat_g_theta_del2      =   0.0000000000000E+00
(PID.TID 0000.0001) %MON g__dynstat_g_salt_max        =   1.3824570850355E-01
(PID.TID 0000.0001) %MON g__dynstat_g_salt_min        =  -5.3957778037749E-02
(PID.TID 0000.0001) %MON g__dynstat_g_salt_mean       =  -2.4511619216010E-04
(PID.TID 0000.0001) %MON g__dynstat_g_salt_sd         =   2.2815036769561E-02
(PID.TID 0000.0001) %MON g__dynstat_g_salt_del2       =   0.0000000000000E+00
(PID.TID 0000.0001) %MON g__dynstat_g_sst_max         =  -1.7797890727763E-01
(PID.TID 0000.0001) %MON g__dynstat_g_sst_min         =  -1.7797890727763E-01
(PID.TID 0000.0001) %MON g__dynstat_g_sst_mean        =  -1.7797890727763E-01
(PID.TID 0000.0001) %MON g__dynstat_g_sst_sd          =   0.0000000000000E+00
(PID.TID 0000.0001) %MON g__dynstat_g_sst_del2        =   0.0000000000000E+00
(PID.TID 0000.0001) %MON g__dynstat_g_sss_max         =  -4.6982056946536E-02
(PID.TID 0000.0001) %MON g__dynstat_g_sss_min         =  -4.6982056946536E-02
(PID.TID 0000.0001) %MON g__dynstat_g_sss_mean        =  -4.6982056946536E-02
(PID.TID 0000.0001) %MON g__dynstat_g_sss_sd          =   0.0000000000000E+00
(PID.TID 0000.0001) %MON g__dynstat_g_sss_del2        =   0.0000000000000E+00
(PID.TID 0000.0001) %MON g__forcing_g_qnet_max        =  -5.7274535172414E+02
(PID.TID 0000.0001) %MON g__forcing_g_qnet_min        =  -5.7274535172414E+02
(PID.TID 0000.0001) %MON g__forcing_g_qnet_mean       =  -5.7274535172414E+02
(PID.TID 0000.0001) %MON g__forcing_g_qnet_sd         =   0.0000000000000E+00
(PID.TID 0000.0001) %MON g__forcing_g_qnet_del2       =   0.0000000000000E+00
(PID.TID 0000.0001) %MON g__forcing_g_qsw_max         =  -6.9486008591194E-03
(PID.TID 0000.0001) %MON g__forcing_g_qsw_min         =  -6.9486008591194E-03
(PID.TID 0000.0001) %MON g__forcing_g_qsw_mean        =  -6.9486008591194E-03
(PID.TID 0000.0001) %MON g__forcing_g_qsw_sd          =   0.0000000000000E+00
(PID.TID 0000.0001) %MON g__forcing_g_qsw_del2        =   0.0000000000000E+00
(PID.TID 0000.0001) %MON g__forcing_g_empmr_max       =   1.7083652051997E-03
(PID.TID 0000.0001) %MON g__forcing_g_empmr_min       =   1.7083652051997E-03
(PID.TID 0000.0001) %MON g__forcing_g_empmr_mean      =   1.7083652051997E-03
(PID.TID 0000.0001) %MON g__forcing_g_empmr_sd        =   0.0000000000000E+00
(PID.TID 0000.0001) %MON g__forcing_g_empmr_del2      =   0.0000000000000E+00
(PID.TID 0000.0001) %MON g__forcing_g_fu_max          =  -5.7257108836064E-06
(PID.TID 0000.0001) %MON g__forcing_g_fu_min          =  -5.7257108836064E-06
(PID.TID 0000.0001) %MON g__forcing_g_fu_mean         =  -5.7257108836064E-06
(PID.TID 0000.0001) %MON g__forcing_g_fu_sd           =   0.0000000000000E+00
(PID.TID 0000.0001) %MON g__forcing_g_fu_del2         =   0.0000000000000E+00
(PID.TID 0000.0001) %MON g__forcing_g_fv_max          =  -5.7257108836064E-06
(PID.TID 0000.0001) %MON g__forcing_g_fv_min          =  -5.7257108836064E-06
(PID.TID 0000.0001) %MON g__forcing_g_fv_mean         =  -5.7257108836064E-06
(PID.TID 0000.0001) %MON g__forcing_g_fv_sd           =   0.0000000000000E+00
(PID.TID 0000.0001) %MON g__forcing_g_fv_del2         =   0.0000000000000E+00
(PID.TID 0000.0001) %MON g__g_vcfl_g_uvel_max         =   1.0124094955760E-03
(PID.TID 0000.0001) %MON g__g_vcfl_g_vvel_max         =   2.0236759224043E-03
(PID.TID 0000.0001) %MON g__g_vcfl_g_wvel_max         =   0.0000000000000E+00
(PID.TID 0000.0001) %MON g__g_vcfl_g_W_hf_max         =   0.0000000000000E+00
(PID.TID 0000.0001) // =======================================================
(PID.TID 0000.0001) // End MONITOR dynamic field statistics
(PID.TID 0000.0001) // =======================================================
 myIter=            6
(PID.TID 0000.0001) // Model state written, timestep         6
(PID.TID 0000.0001) 
 cg2d: Sum(rhs),rhsMax =   1.00000000000000E+00  1.05954449018978E-06
 cg2d: Sum(rhs),rhsMax =   1.00000000000000E+00  2.65835287231568E-05
(PID.TID 0000.0001) // =======================================================
(PID.TID 0000.0001) // Begin MONITOR dynamic field statistics
(PID.TID 0000.0001) // =======================================================
(PID.TID 0000.0001) %MON g__time_tsnumber             =                     7
(PID.TID 0000.0001) %MON g__time_secondsf             =   2.5200000000000E+04
(PID.TID 0000.0001) %MON g__dynstat_g_eta_max         =  -2.8191722372784E-04
(PID.TID 0000.0001) %MON g__dynstat_g_eta_min         =  -2.8191722372784E-04
(PID.TID 0000.0001) %MON g__dynstat_g_eta_mean        =  -2.8191722372784E-04
(PID.TID 0000.0001) %MON g__dynstat_g_eta_sd          =   0.0000000000000E+00
(PID.TID 0000.0001) %MON g__dynstat_g_eta_del2        =   0.0000000000000E+00
(PID.TID 0000.0001) %MON g__dynstat_g_uvel_max        =   2.3889500868785E-03
(PID.TID 0000.0001) %MON g__dynstat_g_uvel_min        =  -4.1053478750258E-03
(PID.TID 0000.0001) %MON g__dynstat_g_uvel_mean       =  -1.0929375131884E-07
(PID.TID 0000.0001) %MON g__dynstat_g_uvel_sd         =   6.8592418283684E-04
(PID.TID 0000.0001) %MON g__dynstat_g_uvel_del2       =   0.0000000000000E+00
(PID.TID 0000.0001) %MON g__dynstat_g_vvel_max        =   2.0578232295273E-03
(PID.TID 0000.0001) %MON g__dynstat_g_vvel_min        =  -2.2754913601165E-03
(PID.TID 0000.0001) %MON g__dynstat_g_vvel_mean       =  -3.2817243109307E-07
(PID.TID 0000.0001) %MON g__dynstat_g_vvel_sd         =   4.3010426413585E-04
(PID.TID 0000.0001) %MON g__dynstat_g_vvel_del2       =   0.0000000000000E+00
(PID.TID 0000.0001) %MON g__dynstat_g_wvel_max        =   0.0000000000000E+00
(PID.TID 0000.0001) %MON g__dynstat_g_wvel_min        =   0.0000000000000E+00
(PID.TID 0000.0001) %MON g__dynstat_g_wvel_mean       =   0.0000000000000E+00
(PID.TID 0000.0001) %MON g__dynstat_g_wvel_sd         =   0.0000000000000E+00
(PID.TID 0000.0001) %MON g__dynstat_g_wvel_del2       =   0.0000000000000E+00
(PID.TID 0000.0001) %MON g__dynstat_g_theta_max       =   1.1964853916469E+00
(PID.TID 0000.0001) %MON g__dynstat_g_theta_min       =  -1.2415300160794E-01
(PID.TID 0000.0001) %MON g__dynstat_g_theta_mean      =   1.9527797714574E-02
(PID.TID 0000.0001) %MON g__dynstat_g_theta_sd        =   1.6728314816536E-01
(PID.TID 0000.0001) %MON g__dynstat_g_theta_del2      =   0.0000000000000E+00
(PID.TID 0000.0001) %MON g__dynstat_g_salt_max        =   1.0298015815678E-01
(PID.TID 0000.0001) %MON g__dynstat_g_salt_min        =  -3.9008553168280E-02
(PID.TID 0000.0001) %MON g__dynstat_g_salt_mean       =   1.1094978215143E-05
(PID.TID 0000.0001) %MON g__dynstat_g_salt_sd         =   1.6626788244521E-02
(PID.TID 0000.0001) %MON g__dynstat_g_salt_del2       =   0.0000000000000E+00
(PID.TID 0000.0001) %MON g__dynstat_g_sst_max         =  -1.2415300160794E-01
(PID.TID 0000.0001) %MON g__dynstat_g_sst_min         =  -1.2415300160794E-01
(PID.TID 0000.0001) %MON g__dynstat_g_sst_mean        =  -1.2415300160794E-01
(PID.TID 0000.0001) %MON g__dynstat_g_sst_sd          =   0.0000000000000E+00
(PID.TID 0000.0001) %MON g__dynstat_g_sst_del2        =   0.0000000000000E+00
(PID.TID 0000.0001) %MON g__dynstat_g_sss_max         =  -3.9008553168280E-02
(PID.TID 0000.0001) %MON g__dynstat_g_sss_min         =  -3.9008553168280E-02
(PID.TID 0000.0001) %MON g__dynstat_g_sss_mean        =  -3.9008553168280E-02
(PID.TID 0000.0001) %MON g__dynstat_g_sss_sd          =   0.0000000000000E+00
(PID.TID 0000.0001) %MON g__dynstat_g_sss_del2        =   0.0000000000000E+00
(PID.TID 0000.0001) %MON g__forcing_g_qnet_max        =  -6.1956482954926E+02
(PID.TID 0000.0001) %MON g__forcing_g_qnet_min        =  -6.1956482954926E+02
(PID.TID 0000.0001) %MON g__forcing_g_qnet_mean       =  -6.1956482954926E+02
(PID.TID 0000.0001) %MON g__forcing_g_qnet_sd         =   0.0000000000000E+00
(PID.TID 0000.0001) %MON g__forcing_g_qnet_del2       =   0.0000000000000E+00
(PID.TID 0000.0001) %MON g__forcing_g_qsw_max         =   8.3745746714563E-03
(PID.TID 0000.0001) %MON g__forcing_g_qsw_min         =   8.3745746714563E-03
(PID.TID 0000.0001) %MON g__forcing_g_qsw_mean        =   8.3745746714563E-03
(PID.TID 0000.0001) %MON g__forcing_g_qsw_sd          =   0.0000000000000E+00
(PID.TID 0000.0001) %MON g__forcing_g_qsw_del2        =   0.0000000000000E+00
(PID.TID 0000.0001) %MON g__forcing_g_empmr_max       =   1.8473346309227E-03
(PID.TID 0000.0001) %MON g__forcing_g_empmr_min       =   1.8473346309227E-03
(PID.TID 0000.0001) %MON g__forcing_g_empmr_mean      =   1.8473346309227E-03
(PID.TID 0000.0001) %MON g__forcing_g_empmr_sd        =   0.0000000000000E+00
(PID.TID 0000.0001) %MON g__forcing_g_empmr_del2      =   0.0000000000000E+00
(PID.TID 0000.0001) %MON g__forcing_g_fu_max          =  -1.1126672374101E-05
(PID.TID 0000.0001) %MON g__forcing_g_fu_min          =  -1.1126672374101E-05
(PID.TID 0000.0001) %MON g__forcing_g_fu_mean         =  -1.1126672374101E-05
(PID.TID 0000.0001) %MON g__forcing_g_fu_sd           =   0.0000000000000E+00
(PID.TID 0000.0001) %MON g__forcing_g_fu_del2         =   0.0000000000000E+00
(PID.TID 0000.0001) %MON g__forcing_g_fv_max          =  -1.1126672374101E-05
(PID.TID 0000.0001) %MON g__forcing_g_fv_min          =  -1.1126672374101E-05
(PID.TID 0000.0001) %MON g__forcing_g_fv_mean         =  -1.1126672374101E-05
(PID.TID 0000.0001) %MON g__forcing_g_fv_sd           =   0.0000000000000E+00
(PID.TID 0000.0001) %MON g__forcing_g_fv_del2         =   0.0000000000000E+00
(PID.TID 0000.0001) %MON g__g_vcfl_g_uvel_max         =   2.9558504700186E-03
(PID.TID 0000.0001) %MON g__g_vcfl_g_vvel_max         =   1.6383537792839E-03
(PID.TID 0000.0001) %MON g__g_vcfl_g_wvel_max         =   0.0000000000000E+00
(PID.TID 0000.0001) %MON g__g_vcfl_g_W_hf_max         =   0.0000000000000E+00
(PID.TID 0000.0001) // =======================================================
(PID.TID 0000.0001) // End MONITOR dynamic field statistics
(PID.TID 0000.0001) // =======================================================
 myIter=            7
(PID.TID 0000.0001) // Model state written, timestep         7
(PID.TID 0000.0001) 
 cg2d: Sum(rhs),rhsMax =   1.00000000000000E+00  1.79506052415702E-05
 cg2d: Sum(rhs),rhsMax =   1.00000000000000E+00  2.82563874062722E-05
(PID.TID 0000.0001) // =======================================================
(PID.TID 0000.0001) // Begin MONITOR dynamic field statistics
(PID.TID 0000.0001) // =======================================================
(PID.TID 0000.0001) %MON g__time_tsnumber             =                     8
(PID.TID 0000.0001) %MON g__time_secondsf             =   2.8800000000000E+04
(PID.TID 0000.0001) %MON g__dynstat_g_eta_max         =  -4.7761890518361E-03
(PID.TID 0000.0001) %MON g__dynstat_g_eta_min         =  -4.7761890518361E-03
(PID.TID 0000.0001) %MON g__dynstat_g_eta_mean        =  -4.7761890518361E-03
(PID.TID 0000.0001) %MON g__dynstat_g_eta_sd          =   0.0000000000000E+00
(PID.TID 0000.0001) %MON g__dynstat_g_eta_del2        =   0.0000000000000E+00
(PID.TID 0000.0001) %MON g__dynstat_g_uvel_max        =   3.1175670648278E-03
(PID.TID 0000.0001) %MON g__dynstat_g_uvel_min        =  -5.2879678646919E-03
(PID.TID 0000.0001) %MON g__dynstat_g_uvel_mean       =  -3.6843827113273E-07
(PID.TID 0000.0001) %MON g__dynstat_g_uvel_sd         =   8.8366743253894E-04
(PID.TID 0000.0001) %MON g__dynstat_g_uvel_del2       =   0.0000000000000E+00
(PID.TID 0000.0001) %MON g__dynstat_g_vvel_max        =   1.2496838110606E-03
(PID.TID 0000.0001) %MON g__dynstat_g_vvel_min        =  -8.5614355353331E-04
(PID.TID 0000.0001) %MON g__dynstat_g_vvel_mean       =  -3.6176921092342E-07
(PID.TID 0000.0001) %MON g__dynstat_g_vvel_sd         =   2.2792748978504E-04
(PID.TID 0000.0001) %MON g__dynstat_g_vvel_del2       =   0.0000000000000E+00
(PID.TID 0000.0001) %MON g__dynstat_g_wvel_max        =   0.0000000000000E+00
(PID.TID 0000.0001) %MON g__dynstat_g_wvel_min        =   0.0000000000000E+00
(PID.TID 0000.0001) %MON g__dynstat_g_wvel_mean       =   0.0000000000000E+00
(PID.TID 0000.0001) %MON g__dynstat_g_wvel_sd         =   0.0000000000000E+00
(PID.TID 0000.0001) %MON g__dynstat_g_wvel_del2       =   0.0000000000000E+00
(PID.TID 0000.0001) %MON g__dynstat_g_theta_max       =   1.0873520597286E+00
(PID.TID 0000.0001) %MON g__dynstat_g_theta_min       =  -7.1955483515717E-02
(PID.TID 0000.0001) %MON g__dynstat_g_theta_mean      =   2.0265059677663E-02
(PID.TID 0000.0001) %MON g__dynstat_g_theta_sd        =   1.5105190812480E-01
(PID.TID 0000.0001) %MON g__dynstat_g_theta_del2      =   0.0000000000000E+00
(PID.TID 0000.0001) %MON g__dynstat_g_salt_max        =   9.1902238143935E-02
(PID.TID 0000.0001) %MON g__dynstat_g_salt_min        =  -3.2259823400516E-02
(PID.TID 0000.0001) %MON g__dynstat_g_salt_mean       =   1.8891950043025E-04
(PID.TID 0000.0001) %MON g__dynstat_g_salt_sd         =   1.4484507981253E-02
(PID.TID 0000.0001) %MON g__dynstat_g_salt_del2       =   0.0000000000000E+00
(PID.TID 0000.0001) %MON g__dynstat_g_sst_max         =  -7.1955483515717E-02
(PID.TID 0000.0001) %MON g__dynstat_g_sst_min         =  -7.1955483515717E-02
(PID.TID 0000.0001) %MON g__dynstat_g_sst_mean        =  -7.1955483515717E-02
(PID.TID 0000.0001) %MON g__dynstat_g_sst_sd          =   0.0000000000000E+00
(PID.TID 0000.0001) %MON g__dynstat_g_sst_del2        =   0.0000000000000E+00
(PID.TID 0000.0001) %MON g__dynstat_g_sss_max         =  -3.2259823400516E-02
(PID.TID 0000.0001) %MON g__dynstat_g_sss_min         =  -3.2259823400516E-02
(PID.TID 0000.0001) %MON g__dynstat_g_sss_mean        =  -3.2259823400516E-02
(PID.TID 0000.0001) %MON g__dynstat_g_sss_sd          =   0.0000000000000E+00
(PID.TID 0000.0001) %MON g__dynstat_g_sss_del2        =   0.0000000000000E+00
(PID.TID 0000.0001) %MON g__forcing_g_qnet_max        =  -4.3029320219207E+02
(PID.TID 0000.0001) %MON g__forcing_g_qnet_min        =  -4.3029320219207E+02
(PID.TID 0000.0001) %MON g__forcing_g_qnet_mean       =  -4.3029320219207E+02
(PID.TID 0000.0001) %MON g__forcing_g_qnet_sd         =   0.0000000000000E+00
(PID.TID 0000.0001) %MON g__forcing_g_qnet_del2       =   0.0000000000000E+00
(PID.TID 0000.0001) %MON g__forcing_g_qsw_max         =   2.8910110556835E-02
(PID.TID 0000.0001) %MON g__forcing_g_qsw_min         =   2.8910110556835E-02
(PID.TID 0000.0001) %MON g__forcing_g_qsw_mean        =   2.8910110556835E-02
(PID.TID 0000.0001) %MON g__forcing_g_qsw_sd          =   0.0000000000000E+00
(PID.TID 0000.0001) %MON g__forcing_g_qsw_del2        =   0.0000000000000E+00
(PID.TID 0000.0001) %MON g__forcing_g_empmr_max       =   1.2821158798519E-03
(PID.TID 0000.0001) %MON g__forcing_g_empmr_min       =   1.2821158798519E-03
(PID.TID 0000.0001) %MON g__forcing_g_empmr_mean      =   1.2821158798519E-03
(PID.TID 0000.0001) %MON g__forcing_g_empmr_sd        =   0.0000000000000E+00
(PID.TID 0000.0001) %MON g__forcing_g_empmr_del2      =   0.0000000000000E+00
(PID.TID 0000.0001) %MON g__forcing_g_fu_max          =  -1.4946546248257E-05
(PID.TID 0000.0001) %MON g__forcing_g_fu_min          =  -1.4946546248257E-05
(PID.TID 0000.0001) %MON g__forcing_g_fu_mean         =  -1.4946546248257E-05
(PID.TID 0000.0001) %MON g__forcing_g_fu_sd           =   0.0000000000000E+00
(PID.TID 0000.0001) %MON g__forcing_g_fu_del2         =   0.0000000000000E+00
(PID.TID 0000.0001) %MON g__forcing_g_fv_max          =  -1.4946546248257E-05
(PID.TID 0000.0001) %MON g__forcing_g_fv_min          =  -1.4946546248257E-05
(PID.TID 0000.0001) %MON g__forcing_g_fv_mean         =  -1.4946546248257E-05
(PID.TID 0000.0001) %MON g__forcing_g_fv_sd           =   0.0000000000000E+00
(PID.TID 0000.0001) %MON g__forcing_g_fv_del2         =   0.0000000000000E+00
(PID.TID 0000.0001) %MON g__g_vcfl_g_uvel_max         =   3.8073368625782E-03
(PID.TID 0000.0001) %MON g__g_vcfl_g_vvel_max         =   8.9977234396361E-04
(PID.TID 0000.0001) %MON g__g_vcfl_g_wvel_max         =   0.0000000000000E+00
(PID.TID 0000.0001) %MON g__g_vcfl_g_W_hf_max         =   0.0000000000000E+00
(PID.TID 0000.0001) // =======================================================
(PID.TID 0000.0001) // End MONITOR dynamic field statistics
(PID.TID 0000.0001) // =======================================================
 myIter=            8
(PID.TID 0000.0001) // Model state written, timestep         8
(PID.TID 0000.0001) 
 cg2d: Sum(rhs),rhsMax =   1.00000000000000E+00  2.76891640822428E-05
 cg2d: Sum(rhs),rhsMax =   1.00000000000000E+00  2.96382495632280E-05
(PID.TID 0000.0001) // =======================================================
(PID.TID 0000.0001) // Begin MONITOR dynamic field statistics
(PID.TID 0000.0001) // =======================================================
(PID.TID 0000.0001) %MON g__time_tsnumber             =                     9
(PID.TID 0000.0001) %MON g__time_secondsf             =   3.2400000000000E+04
(PID.TID 0000.0001) %MON g__dynstat_g_eta_max         =  -7.3673662009971E-03
(PID.TID 0000.0001) %MON g__dynstat_g_eta_min         =  -7.3673662009971E-03
(PID.TID 0000.0001) %MON g__dynstat_g_eta_mean        =  -7.3673662009971E-03
(PID.TID 0000.0001) %MON g__dynstat_g_eta_sd          =   0.0000000000000E+00
(PID.TID 0000.0001) %MON g__dynstat_g_eta_del2        =   0.0000000000000E+00
(PID.TID 0000.0001) %MON g__dynstat_g_uvel_max        =   1.6464968741650E-03
(PID.TID 0000.0001) %MON g__dynstat_g_uvel_min        =  -3.1661708731597E-03
(PID.TID 0000.0001) %MON g__dynstat_g_uvel_mean       =  -6.3715957077492E-07
(PID.TID 0000.0001) %MON g__dynstat_g_uvel_sd         =   5.2227257021660E-04
(PID.TID 0000.0001) %MON g__dynstat_g_uvel_del2       =   0.0000000000000E+00
(PID.TID 0000.0001) %MON g__dynstat_g_vvel_max        =   4.9111434015667E-03
(PID.TID 0000.0001) %MON g__dynstat_g_vvel_min        =  -4.6809080288497E-03
(PID.TID 0000.0001) %MON g__dynstat_g_vvel_mean       =  -3.0438369630228E-07
(PID.TID 0000.0001) %MON g__dynstat_g_vvel_sd         =   9.6286577782133E-04
(PID.TID 0000.0001) %MON g__dynstat_g_vvel_del2       =   0.0000000000000E+00
(PID.TID 0000.0001) %MON g__dynstat_g_wvel_max        =   0.0000000000000E+00
(PID.TID 0000.0001) %MON g__dynstat_g_wvel_min        =   0.0000000000000E+00
(PID.TID 0000.0001) %MON g__dynstat_g_wvel_mean       =   0.0000000000000E+00
(PID.TID 0000.0001) %MON g__dynstat_g_wvel_sd         =   0.0000000000000E+00
(PID.TID 0000.0001) %MON g__dynstat_g_wvel_del2       =   0.0000000000000E+00
(PID.TID 0000.0001) %MON g__dynstat_g_theta_max       =   1.8269476942564E+00
(PID.TID 0000.0001) %MON g__dynstat_g_theta_min       =  -4.4295329643558E-01
(PID.TID 0000.0001) %MON g__dynstat_g_theta_mean      =   2.0690801324983E-02
(PID.TID 0000.0001) %MON g__dynstat_g_theta_sd        =   2.6358960964966E-01
(PID.TID 0000.0001) %MON g__dynstat_g_theta_del2      =   0.0000000000000E+00
(PID.TID 0000.0001) %MON g__dynstat_g_salt_max        =   1.5215501286966E-01
(PID.TID 0000.0001) %MON g__dynstat_g_salt_min        =  -6.0982080905383E-02
(PID.TID 0000.0001) %MON g__dynstat_g_salt_mean       =   2.9144330413852E-04
(PID.TID 0000.0001) %MON g__dynstat_g_salt_sd         =   2.4087775958501E-02
(PID.TID 0000.0001) %MON g__dynstat_g_salt_del2       =   0.0000000000000E+00
(PID.TID 0000.0001) %MON g__dynstat_g_sst_max         =  -1.2737315835552E-01
(PID.TID 0000.0001) %MON g__dynstat_g_sst_min         =  -1.2737315835552E-01
(PID.TID 0000.0001) %MON g__dynstat_g_sst_mean        =  -1.2737315835552E-01
(PID.TID 0000.0001) %MON g__dynstat_g_sst_sd          =   0.0000000000000E+00
(PID.TID 0000.0001) %MON g__dynstat_g_sst_del2        =   0.0000000000000E+00
(PID.TID 0000.0001) %MON g__dynstat_g_sss_max         =  -3.5856334052038E-02
(PID.TID 0000.0001) %MON g__dynstat_g_sss_min         =  -3.5856334052038E-02
(PID.TID 0000.0001) %MON g__dynstat_g_sss_mean        =  -3.5856334052038E-02
(PID.TID 0000.0001) %MON g__dynstat_g_sss_sd          =   0.0000000000000E+00
(PID.TID 0000.0001) %MON g__dynstat_g_sss_del2        =   0.0000000000000E+00
(PID.TID 0000.0001) %MON g__forcing_g_qnet_max        =  -2.4847848648640E+02
(PID.TID 0000.0001) %MON g__forcing_g_qnet_min        =  -2.4847848648640E+02
(PID.TID 0000.0001) %MON g__forcing_g_qnet_mean       =  -2.4847848648640E+02
(PID.TID 0000.0001) %MON g__forcing_g_qnet_sd         =   0.0000000000000E+00
(PID.TID 0000.0001) %MON g__forcing_g_qnet_del2       =   0.0000000000000E+00
(PID.TID 0000.0001) %MON g__forcing_g_qsw_max         =   4.5668260611068E-02
(PID.TID 0000.0001) %MON g__forcing_g_qsw_min         =   4.5668260611068E-02
(PID.TID 0000.0001) %MON g__forcing_g_qsw_mean        =   4.5668260611068E-02
(PID.TID 0000.0001) %MON g__forcing_g_qsw_sd          =   0.0000000000000E+00
(PID.TID 0000.0001) %MON g__forcing_g_qsw_del2        =   0.0000000000000E+00
(PID.TID 0000.0001) %MON g__forcing_g_empmr_max       =   7.3920525893977E-04
(PID.TID 0000.0001) %MON g__forcing_g_empmr_min       =   7.3920525893977E-04
(PID.TID 0000.0001) %MON g__forcing_g_empmr_mean      =   7.3920525893977E-04
(PID.TID 0000.0001) %MON g__forcing_g_empmr_sd        =   0.0000000000000E+00
(PID.TID 0000.0001) %MON g__forcing_g_empmr_del2      =   0.0000000000000E+00
(PID.TID 0000.0001) %MON g__forcing_g_fu_max          =  -1.7614046690405E-05
(PID.TID 0000.0001) %MON g__forcing_g_fu_min          =  -1.7614046690405E-05
(PID.TID 0000.0001) %MON g__forcing_g_fu_mean         =  -1.7614046690405E-05
(PID.TID 0000.0001) %MON g__forcing_g_fu_sd           =   3.3881317890172E-21
(PID.TID 0000.0001) %MON g__forcing_g_fu_del2         =   0.0000000000000E+00
(PID.TID 0000.0001) %MON g__forcing_g_fv_max          =  -1.7614046690405E-05
(PID.TID 0000.0001) %MON g__forcing_g_fv_min          =  -1.7614046690405E-05
(PID.TID 0000.0001) %MON g__forcing_g_fv_mean         =  -1.7614046690405E-05
(PID.TID 0000.0001) %MON g__forcing_g_fv_sd           =   3.3881317890172E-21
(PID.TID 0000.0001) %MON g__forcing_g_fv_del2         =   0.0000000000000E+00
(PID.TID 0000.0001) %MON g__g_vcfl_g_uvel_max         =   2.2796430286750E-03
(PID.TID 0000.0001) %MON g__g_vcfl_g_vvel_max         =   3.5360232491280E-03
(PID.TID 0000.0001) %MON g__g_vcfl_g_wvel_max         =   0.0000000000000E+00
(PID.TID 0000.0001) %MON g__g_vcfl_g_W_hf_max         =   0.0000000000000E+00
(PID.TID 0000.0001) // =======================================================
(PID.TID 0000.0001) // End MONITOR dynamic field statistics
(PID.TID 0000.0001) // =======================================================
 myIter=            9
(PID.TID 0000.0001) // Model state written, timestep         9
(PID.TID 0000.0001) 
 cg2d: Sum(rhs),rhsMax =   1.00000000000000E+00  4.48428061950436E-05
 cg2d: Sum(rhs),rhsMax =   1.00000000000000E+00  3.06558785220526E-05
(PID.TID 0000.0001) // =======================================================
(PID.TID 0000.0001) // Begin MONITOR dynamic field statistics
(PID.TID 0000.0001) // =======================================================
(PID.TID 0000.0001) %MON g__time_tsnumber             =                    10
(PID.TID 0000.0001) %MON g__time_secondsf             =   3.6000000000000E+04
(PID.TID 0000.0001) %MON g__dynstat_g_eta_max         =  -1.1931504098059E-02
(PID.TID 0000.0001) %MON g__dynstat_g_eta_min         =  -1.1931504098059E-02
(PID.TID 0000.0001) %MON g__dynstat_g_eta_mean        =  -1.1931504098059E-02
(PID.TID 0000.0001) %MON g__dynstat_g_eta_sd          =   0.0000000000000E+00
(PID.TID 0000.0001) %MON g__dynstat_g_eta_del2        =   0.0000000000000E+00
(PID.TID 0000.0001) %MON g__dynstat_g_uvel_max        =   5.2097952777322E-02
(PID.TID 0000.0001) %MON g__dynstat_g_uvel_min        =  -4.3572573477743E-02
(PID.TID 0000.0001) %MON g__dynstat_g_uvel_mean       =  -9.1612164218840E-07
(PID.TID 0000.0001) %MON g__dynstat_g_uvel_sd         =   9.6272405511591E-03
(PID.TID 0000.0001) %MON g__dynstat_g_uvel_del2       =   0.0000000000000E+00
(PID.TID 0000.0001) %MON g__dynstat_g_vvel_max        =   2.3389607934717E-02
(PID.TID 0000.0001) %MON g__dynstat_g_vvel_min        =  -2.2958407527531E-02
(PID.TID 0000.0001) %MON g__dynstat_g_vvel_mean       =  -1.9874166200413E-07
(PID.TID 0000.0001) %MON g__dynstat_g_vvel_sd         =   4.6859268068518E-03
(PID.TID 0000.0001) %MON g__dynstat_g_vvel_del2       =   0.0000000000000E+00
(PID.TID 0000.0001) %MON g__dynstat_g_wvel_max        =   0.0000000000000E+00
(PID.TID 0000.0001) %MON g__dynstat_g_wvel_min        =   0.0000000000000E+00
(PID.TID 0000.0001) %MON g__dynstat_g_wvel_mean       =   0.0000000000000E+00
(PID.TID 0000.0001) %MON g__dynstat_g_wvel_sd         =   0.0000000000000E+00
(PID.TID 0000.0001) %MON g__dynstat_g_wvel_del2       =   0.0000000000000E+00
(PID.TID 0000.0001) %MON g__dynstat_g_theta_max       =   1.8269158122139E+00
(PID.TID 0000.0001) %MON g__dynstat_g_theta_min       =  -2.3804777794313E+00
(PID.TID 0000.0001) %MON g__dynstat_g_theta_mean      =   2.1440445158577E-02
(PID.TID 0000.0001) %MON g__dynstat_g_theta_sd        =   4.5659710239940E-01
(PID.TID 0000.0001) %MON g__dynstat_g_theta_del2      =   0.0000000000000E+00
(PID.TID 0000.0001) %MON g__dynstat_g_salt_max        =   1.5215284433020E-01
(PID.TID 0000.0001) %MON g__dynstat_g_salt_min        =  -1.0828336393927E-01
(PID.TID 0000.0001) %MON g__dynstat_g_salt_mean       =   4.7205441193856E-04
(PID.TID 0000.0001) %MON g__dynstat_g_salt_sd         =   2.6143970127560E-02
(PID.TID 0000.0001) %MON g__dynstat_g_salt_del2       =   0.0000000000000E+00
(PID.TID 0000.0001) %MON g__dynstat_g_sst_max         =   4.0744477448240E-01
(PID.TID 0000.0001) %MON g__dynstat_g_sst_min         =   4.0744477448240E-01
(PID.TID 0000.0001) %MON g__dynstat_g_sst_mean        =   4.0744477448240E-01
(PID.TID 0000.0001) %MON g__dynstat_g_sst_sd          =   0.0000000000000E+00
(PID.TID 0000.0001) %MON g__dynstat_g_sst_del2        =   0.0000000000000E+00
(PID.TID 0000.0001) %MON g__dynstat_g_sss_max         =  -1.3313383759794E-02
(PID.TID 0000.0001) %MON g__dynstat_g_sss_min         =  -1.3313383759794E-02
(PID.TID 0000.0001) %MON g__dynstat_g_sss_mean        =  -1.3313383759794E-02
(PID.TID 0000.0001) %MON g__dynstat_g_sss_sd          =   0.0000000000000E+00
(PID.TID 0000.0001) %MON g__dynstat_g_sss_del2        =   0.0000000000000E+00
(PID.TID 0000.0001) %MON g__forcing_g_qnet_max        =  -4.3751971729114E+02
(PID.TID 0000.0001) %MON g__forcing_g_qnet_min        =  -4.3751971729114E+02
(PID.TID 0000.0001) %MON g__forcing_g_qnet_mean       =  -4.3751971729114E+02
(PID.TID 0000.0001) %MON g__forcing_g_qnet_sd         =   0.0000000000000E+00
(PID.TID 0000.0001) %MON g__forcing_g_qnet_del2       =   0.0000000000000E+00
(PID.TID 0000.0001) %MON g__forcing_g_qsw_max         =   5.6594976942288E-02
(PID.TID 0000.0001) %MON g__forcing_g_qsw_min         =   5.6594976942288E-02
(PID.TID 0000.0001) %MON g__forcing_g_qsw_mean        =   5.6594976942288E-02
(PID.TID 0000.0001) %MON g__forcing_g_qsw_sd          =   0.0000000000000E+00
(PID.TID 0000.0001) %MON g__forcing_g_qsw_del2        =   0.0000000000000E+00
(PID.TID 0000.0001) %MON g__forcing_g_empmr_max       =   1.3020471167441E-03
(PID.TID 0000.0001) %MON g__forcing_g_empmr_min       =   1.3020471167441E-03
(PID.TID 0000.0001) %MON g__forcing_g_empmr_mean      =   1.3020471167441E-03
(PID.TID 0000.0001) %MON g__forcing_g_empmr_sd        =   0.0000000000000E+00
(PID.TID 0000.0001) %MON g__forcing_g_empmr_del2      =   0.0000000000000E+00
(PID.TID 0000.0001) %MON g__forcing_g_fu_max          =  -2.3240527622725E-05
(PID.TID 0000.0001) %MON g__forcing_g_fu_min          =  -2.3240527622725E-05
(PID.TID 0000.0001) %MON g__forcing_g_fu_mean         =  -2.3240527622725E-05
(PID.TID 0000.0001) %MON g__forcing_g_fu_sd           =   0.0000000000000E+00
(PID.TID 0000.0001) %MON g__forcing_g_fu_del2         =   0.0000000000000E+00
(PID.TID 0000.0001) %MON g__forcing_g_fv_max          =  -2.3240527622725E-05
(PID.TID 0000.0001) %MON g__forcing_g_fv_min          =  -2.3240527622725E-05
(PID.TID 0000.0001) %MON g__forcing_g_fv_mean         =  -2.3240527622725E-05
(PID.TID 0000.0001) %MON g__forcing_g_fv_sd           =   0.0000000000000E+00
(PID.TID 0000.0001) %MON g__forcing_g_fv_del2         =   0.0000000000000E+00
(PID.TID 0000.0001) %MON g__g_vcfl_g_uvel_max         =   3.7510525999672E-02
(PID.TID 0000.0001) %MON g__g_vcfl_g_vvel_max         =   1.6840517712997E-02
(PID.TID 0000.0001) %MON g__g_vcfl_g_wvel_max         =   0.0000000000000E+00
(PID.TID 0000.0001) %MON g__g_vcfl_g_W_hf_max         =   0.0000000000000E+00
(PID.TID 0000.0001) // =======================================================
(PID.TID 0000.0001) // End MONITOR dynamic field statistics
(PID.TID 0000.0001) // =======================================================
(PID.TID 0000.0001) Did not write pickup because writePickupAtEnd = FALSE
(PID.TID 0000.0001) 
(PID.TID 0000.0001)  cal_TimeStamp: iter =          0 time =  0.00000000E+00
(PID.TID 0000.0001)                 date =   19790101           0
(PID.TID 0000.0001) 
(PID.TID 0000.0001) INI_CG2D: CG2D normalisation factor =  1.9483302809492266E-03
(PID.TID 0000.0001) 
(PID.TID 0000.0001) Start initial hydrostatic pressure computation
(PID.TID 0000.0001) Pressure is predetermined for buoyancyRelation OCEANIC
(PID.TID 0000.0001) 
(PID.TID 0000.0001) // =======================================================
(PID.TID 0000.0001) // Model current state
(PID.TID 0000.0001) // =======================================================
(PID.TID 0000.0001) 
 ph-ice B            0  -1.9299999999999999       3.19162471080251071E-003  1.59581235540125536E-003
 ph-ice C            0   7978.8401425578732     
(PID.TID 0000.0001) SOLVE_FOR_PRESSURE: putPmEinXvector =    F
 cg2d: Sum(rhs),rhsMax =   1.00000000000000E+00  5.58645366562891E-06
 ph-ice B            1  -1.9277414044432137       8.88744644275882636E-003  3.09504162381542660E-003
 ph-ice C            1   30196.839082817711     
 cg2d: Sum(rhs),rhsMax =   1.00000000000000E+00  1.08504346735986E-05
 ph-ice B            2  -1.9227439540196305       1.45024480327733893E-002  4.38366126903674564E-003
 ph-ice C            2   66451.952078279093     
 cg2d: Sum(rhs),rhsMax =   1.00000000000000E+00  1.54115913890621E-05
 ph-ice B            3  -1.9169503472710256       2.00243196129379457E-002  5.43052713299312963E-003
 ph-ice C            3   116511.36057149916     
 cg2d: Sum(rhs),rhsMax =   1.00000000000000E+00  1.91662461946213E-05
 ph-ice B            4  -1.9115570387534122       2.54432300891780719E-002  6.25461569580018466E-003
 ph-ice C            4   180117.66895254486     
 cg2d: Sum(rhs),rhsMax =   1.00000000000000E+00  2.21776098014034E-05
 ph-ice B            5  -1.9071999821135837       3.07544746255958464E-002  6.90084875086461377E-003
 ph-ice C            5   257001.71984845406     
 cg2d: Sum(rhs),rhsMax =   1.00000000000000E+00  2.45952848308433E-05
 ph-ice B            6  -1.9040029669676191       3.59579709497102953E-002  7.41854901939831540E-003
 ph-ice C            6   346894.15021077532     
 cg2d: Sum(rhs),rhsMax =   1.00000000000000E+00  2.65835288290121E-05
 ph-ice B            7  -1.9016149347335487       4.10551566158364953E-002  7.84195957478758116E-003
 ph-ice C            7   449529.19077701750     
 cg2d: Sum(rhs),rhsMax =   1.00000000000000E+00  2.82563892013208E-05
 ph-ice B            8  -1.8993859336597825       4.60449295399148403E-002  8.17839567041826060E-003
 ph-ice C            8   564638.31715107197     
 cg2d: Sum(rhs),rhsMax =   1.00000000000000E+00  2.96382523321429E-05
 ph-ice B            9  -1.8965938939049196       5.09203570358589680E-002  8.40585373261863895E-003
 ph-ice C            9   691935.67370303744     
 cg2d: Sum(rhs),rhsMax =   1.00000000000000E+00  3.06558830062312E-05
(PID.TID 0000.0001) Did not write pickup because writePickupAtEnd = FALSE
(PID.TID 0000.0001) ph-cost call cost_theta0
(PID.TID 0000.0001) ph-cost call cost_salt0
(PID.TID 0000.0001) ph-cost call cost_theta
(PID.TID 0000.0001) ph-cost call cost_salt
(PID.TID 0000.0001) ph-cost call cost_smrarea
  SICD cost smrarea/sst/sss    0.0000000000000000        0.0000000000000000        0.0000000000000000     
  SICD num points smrarea/sst/sss    0.0000000000000000        0.0000000000000000        0.0000000000000000     
 --> f_ice     = 0.691935673703037D+06
 --> f_smrarea = 0.000000000000000D+00
 --> f_smrarea = 0.000000000000000D+00
 --> f_smrarea = 0.000000000000000D+00
 --> f_temp    = 0.205317617387810D-01
 --> f_salt    = 0.270385271450325D-02
 --> f_temp0   = 0.924200717024491D-14
 --> f_salt0   = 0.000000000000000D+00
 --> f_temp0smoo = 0.000000000000000D+00
 --> f_salt0smoo = 0.000000000000000D+00
 --> f_etan0   = 0.000000000000000D+00
 --> f_uvel0   = 0.000000000000000D+00
 --> f_vvel0   = 0.000000000000000D+00
 --> f_sst     = 0.000000000000000D+00
 --> f_tmi     = 0.000000000000000D+00
 --> f_sss     = 0.000000000000000D+00
 --> f_bp      = 0.000000000000000D+00
 --> f_ies      = 0.000000000000000D+00
 --> f_ssh       = 0.000000000000000D+00
 --> f_tp        = 0.000000000000000D+00
 --> f_ers       = 0.000000000000000D+00
 --> f_gfo       = 0.000000000000000D+00
 --> f_tauu    = 0.000000000000000D+00
 --> f_tauum   = 0.000000000000000D+00
 --> f_tauusmoo = 0.000000000000000D+00
 --> f_tauv    = 0.000000000000000D+00
 --> f_tauvm   = 0.000000000000000D+00
 --> f_tauvsmoo = 0.000000000000000D+00
 --> f_hflux   = 0.000000000000000D+00
 --> f_hfluxmm = 0.000000000000000D+00
 --> f_hfluxsmoo = 0.000000000000000D+00
 --> f_sflux   = 0.000000000000000D+00
 --> f_sfluxmm = 0.000000000000000D+00
 --> f_sfluxsmoo = 0.000000000000000D+00
 --> f_uwind     = 0.000000000000000D+00
 --> f_vwind     = 0.000000000000000D+00
 --> f_atemp     = 0.000000000000000D+00
 --> f_aqh     = 0.000000000000000D+00
 --> f_precip  = 0.000000000000000D+00
 --> f_swflux  = 0.000000000000000D+00
 --> f_swdown  = 0.000000000000000D+00
 --> f_uwindm     = 0.000000000000000D+00
 --> f_vwindm     = 0.000000000000000D+00
 --> f_atempm     = 0.000000000000000D+00
 --> f_aqhm     = 0.000000000000000D+00
 --> f_precipm  = 0.000000000000000D+00
 --> f_swfluxm  = 0.000000000000000D+00
 --> f_swdownm  = 0.000000000000000D+00
 --> f_uwindsmoo     = 0.000000000000000D+00
 --> f_vwindsmoo     = 0.000000000000000D+00
 --> f_atempsmoo     = 0.000000000000000D+00
 --> f_aqhsmoo     = 0.000000000000000D+00
 --> f_precipsmoo  = 0.000000000000000D+00
 --> f_swfluxsmoo  = 0.000000000000000D+00
 --> f_swdownsmoo  = 0.000000000000000D+00
 --> f_atl     = 0.000000000000000D+00
 --> f_ctdt    = 0.000000000000000D+00
 --> f_ctds    = 0.000000000000000D+00
 --> f_ctdtclim= 0.000000000000000D+00
 --> f_ctdsclim= 0.000000000000000D+00
 --> f_xbt     = 0.000000000000000D+00
 --> f_argot   = 0.000000000000000D+00
 --> f_argos   = 0.000000000000000D+00
 --> f_drifter   = 0.000000000000000D+00
 --> f_tdrift  = 0.000000000000000D+00
 --> f_sdrift  = 0.000000000000000D+00
 --> f_wdrift  = 0.000000000000000D+00
 --> f_scatx   = 0.000000000000000D+00
 --> f_scaty   = 0.000000000000000D+00
 --> f_scatxm  = 0.000000000000000D+00
 --> f_scatym  = 0.000000000000000D+00
 --> f_obcsn   = 0.000000000000000D+00
 --> f_obcss   = 0.000000000000000D+00
 --> f_obcsw   = 0.000000000000000D+00
 --> f_obcse   = 0.000000000000000D+00
 --> f_ageos   = 0.000000000000000D+00
 --> f_curmtr  = 0.000000000000000D+00
 --> f_kapgm   = 0.000000000000000D+00
 --> f_kapredi   = 0.000000000000000D+00
 --> f_diffkr  = 0.000000000000000D+00
 --> f_eddytau = 0.000000000000000D+00
 --> f_bottomdrag = 0.000000000000000D+00
 --> f_hfluxmm2           = 0.000000000000000D+00
 --> f_sfluxmm2           = 0.000000000000000D+00
 --> f_transp             = 0.000000000000000D+00
 --> objf_hmean           = 0.000000000000000D+00
 --> fc               = 0.691935673703037D+06
 ph-check fcpertplus =    691935.67370303744     
 ph-check fcpertminus =    691935.67110343161     
(PID.TID 0000.0001) 
(PID.TID 0000.0001)  cal_TimeStamp: iter =          0 time =  0.00000000E+00
(PID.TID 0000.0001)                 date =   19790101           0
(PID.TID 0000.0001) 
(PID.TID 0000.0001) INI_CG2D: CG2D normalisation factor =  1.9483302809492266E-03
(PID.TID 0000.0001) 
(PID.TID 0000.0001) Start initial hydrostatic pressure computation
(PID.TID 0000.0001) Pressure is predetermined for buoyancyRelation OCEANIC
(PID.TID 0000.0001) 
(PID.TID 0000.0001) // =======================================================
(PID.TID 0000.0001) // Model current state
(PID.TID 0000.0001) // =======================================================
(PID.TID 0000.0001) 
 ph-ice B            0  -1.9299999999999999       3.19162471080251071E-003  1.59581235540125536E-003
 ph-ice C            0   7978.8401425578732     
(PID.TID 0000.0001) SOLVE_FOR_PRESSURE: putPmEinXvector =    F
 cg2d: Sum(rhs),rhsMax =   1.00000000000000E+00  5.58645366562891E-06
 ph-ice B            1  -1.9277414317704449       8.88744645147446222E-003  3.09504277492721842E-003
 ph-ice C            1   30196.839104606195     
 cg2d: Sum(rhs),rhsMax =   1.00000000000000E+00  1.08504385064157E-05
 ph-ice B            2  -1.9227439876390742       1.45024480923277611E-002  4.38366382880881703E-003
 ph-ice C            2   66451.952248949368     
 cg2d: Sum(rhs),rhsMax =   1.00000000000000E+00  1.54115999122492E-05
 ph-ice B            3  -1.9169503636093723       2.00243197155608385E-002  5.43053037353097724E-003
 ph-ice C            3   116511.36099871952     
 cg2d: Sum(rhs),rhsMax =   1.00000000000000E+00  1.91662569845149E-05
 ph-ice B            4  -1.9115570269415176       2.54432301455107292E-002  6.25461844594405424E-003
 ph-ice C            4   180117.66952059296     
 cg2d: Sum(rhs),rhsMax =   1.00000000000000E+00  2.21776189584289E-05
 ph-ice B            5  -1.9071999493639979       3.07544745206020168E-002  6.90085014910277617E-003
 ph-ice C            5   257001.72015402484     
 cg2d: Sum(rhs),rhsMax =   1.00000000000000E+00  2.45952894864504E-05
 ph-ice B            6  -1.9040029313718794       3.59579706340432820E-002  7.41854895577375578E-003
 ph-ice C            6   346894.14972720045     
 cg2d: Sum(rhs),rhsMax =   1.00000000000000E+00  2.65835286171343E-05
 ph-ice B            7  -1.9016149099033282       4.10551561315231350E-002  7.84195849657282062E-003
 ph-ice C            7   449529.18908269284     
 cg2d: Sum(rhs),rhsMax =   1.00000000000000E+00  2.82563856112541E-05
 ph-ice B            8  -1.8993859192680311       4.60449289483885332E-002  8.17839400718013525E-003
 ph-ice C            8   564638.31397797260     
 cg2d: Sum(rhs),rhsMax =   1.00000000000000E+00  2.96382467942860E-05
 ph-ice B            9  -1.8965938684319896       5.09203562253924061E-002  8.40585103904882731E-003
 ph-ice C            9   691935.66850382788     
 cg2d: Sum(rhs),rhsMax =   1.00000000000000E+00  3.06558740378869E-05
(PID.TID 0000.0001) Did not write pickup because writePickupAtEnd = FALSE
(PID.TID 0000.0001) ph-cost call cost_theta0
(PID.TID 0000.0001) ph-cost call cost_salt0
(PID.TID 0000.0001) ph-cost call cost_theta
(PID.TID 0000.0001) ph-cost call cost_salt
(PID.TID 0000.0001) ph-cost call cost_smrarea
  SICD cost smrarea/sst/sss    0.0000000000000000        0.0000000000000000        0.0000000000000000     
  SICD num points smrarea/sst/sss    0.0000000000000000        0.0000000000000000        0.0000000000000000     
 --> f_ice     = 0.691935668503828D+06
 --> f_smrarea = 0.000000000000000D+00
 --> f_smrarea = 0.000000000000000D+00
 --> f_smrarea = 0.000000000000000D+00
 --> f_temp    = 0.205318229400497D-01
 --> f_salt    = 0.270385885898805D-02
 --> f_temp0   = 0.924200717024491D-14
 --> f_salt0   = 0.000000000000000D+00
 --> f_temp0smoo = 0.000000000000000D+00
 --> f_salt0smoo = 0.000000000000000D+00
 --> f_etan0   = 0.000000000000000D+00
 --> f_uvel0   = 0.000000000000000D+00
 --> f_vvel0   = 0.000000000000000D+00
 --> f_sst     = 0.000000000000000D+00
 --> f_tmi     = 0.000000000000000D+00
 --> f_sss     = 0.000000000000000D+00
 --> f_bp      = 0.000000000000000D+00
 --> f_ies      = 0.000000000000000D+00
 --> f_ssh       = 0.000000000000000D+00
 --> f_tp        = 0.000000000000000D+00
 --> f_ers       = 0.000000000000000D+00
 --> f_gfo       = 0.000000000000000D+00
 --> f_tauu    = 0.000000000000000D+00
 --> f_tauum   = 0.000000000000000D+00
 --> f_tauusmoo = 0.000000000000000D+00
 --> f_tauv    = 0.000000000000000D+00
 --> f_tauvm   = 0.000000000000000D+00
 --> f_tauvsmoo = 0.000000000000000D+00
 --> f_hflux   = 0.000000000000000D+00
 --> f_hfluxmm = 0.000000000000000D+00
 --> f_hfluxsmoo = 0.000000000000000D+00
 --> f_sflux   = 0.000000000000000D+00
 --> f_sfluxmm = 0.000000000000000D+00
 --> f_sfluxsmoo = 0.000000000000000D+00
 --> f_uwind     = 0.000000000000000D+00
 --> f_vwind     = 0.000000000000000D+00
 --> f_atemp     = 0.000000000000000D+00
 --> f_aqh     = 0.000000000000000D+00
 --> f_precip  = 0.000000000000000D+00
 --> f_swflux  = 0.000000000000000D+00
 --> f_swdown  = 0.000000000000000D+00
 --> f_uwindm     = 0.000000000000000D+00
 --> f_vwindm     = 0.000000000000000D+00
 --> f_atempm     = 0.000000000000000D+00
 --> f_aqhm     = 0.000000000000000D+00
 --> f_precipm  = 0.000000000000000D+00
 --> f_swfluxm  = 0.000000000000000D+00
 --> f_swdownm  = 0.000000000000000D+00
 --> f_uwindsmoo     = 0.000000000000000D+00
 --> f_vwindsmoo     = 0.000000000000000D+00
 --> f_atempsmoo     = 0.000000000000000D+00
 --> f_aqhsmoo     = 0.000000000000000D+00
 --> f_precipsmoo  = 0.000000000000000D+00
 --> f_swfluxsmoo  = 0.000000000000000D+00
 --> f_swdownsmoo  = 0.000000000000000D+00
 --> f_atl     = 0.000000000000000D+00
 --> f_ctdt    = 0.000000000000000D+00
 --> f_ctds    = 0.000000000000000D+00
 --> f_ctdtclim= 0.000000000000000D+00
 --> f_ctdsclim= 0.000000000000000D+00
 --> f_xbt     = 0.000000000000000D+00
 --> f_argot   = 0.000000000000000D+00
 --> f_argos   = 0.000000000000000D+00
 --> f_drifter   = 0.000000000000000D+00
 --> f_tdrift  = 0.000000000000000D+00
 --> f_sdrift  = 0.000000000000000D+00
 --> f_wdrift  = 0.000000000000000D+00
 --> f_scatx   = 0.000000000000000D+00
 --> f_scaty   = 0.000000000000000D+00
 --> f_scatxm  = 0.000000000000000D+00
 --> f_scatym  = 0.000000000000000D+00
 --> f_obcsn   = 0.000000000000000D+00
 --> f_obcss   = 0.000000000000000D+00
 --> f_obcsw   = 0.000000000000000D+00
 --> f_obcse   = 0.000000000000000D+00
 --> f_ageos   = 0.000000000000000D+00
 --> f_curmtr  = 0.000000000000000D+00
 --> f_kapgm   = 0.000000000000000D+00
 --> f_kapredi   = 0.000000000000000D+00
 --> f_diffkr  = 0.000000000000000D+00
 --> f_eddytau = 0.000000000000000D+00
 --> f_bottomdrag = 0.000000000000000D+00
 --> f_hfluxmm2           = 0.000000000000000D+00
 --> f_sfluxmm2           = 0.000000000000000D+00
 --> f_transp             = 0.000000000000000D+00
 --> objf_hmean           = 0.000000000000000D+00
 --> fc               = 0.691935668503828D+06
grad-res -------------------------------
 grad-res     0    3    1    1    3    1    1    1   6.91935671103E+05  6.91935673703E+05  6.91935668504E+05
 grad-res     0    3    3    3    0    1    1    1   2.59961769383E+04  2.59960477706E+04  4.96872027733E-06
(PID.TID 0000.0001)   TLM  precision_derivative_cost =    6.91935671103432E+05
(PID.TID 0000.0001)   TLM  precision_derivative_grad =    2.59961769383360E+04
 ph-grd  ierr ---------------------------
 ph-grd  ierr =            0 , icomp =            3 , ichknum =            3
 ph-test icomp, ncvarcomp, ichknum            4          23           4
 ph-grd _loc: bi, bj, icomptest, ichknum            1           1           3           4
 ph-grd _loc: bi, bj, icomptest, ichknum            1           1           3           4
 ph-grd -->hit<--            1           1           4           1
(PID.TID 0000.0001) 
(PID.TID 0000.0001)  cal_TimeStamp: iter =          0 time =  0.00000000E+00
(PID.TID 0000.0001)                 date =   19790101           0
(PID.TID 0000.0001) 
(PID.TID 0000.0001) INI_CG2D: CG2D normalisation factor =  1.9483302809492266E-03
(PID.TID 0000.0001) 
(PID.TID 0000.0001) Start initial hydrostatic pressure computation
(PID.TID 0000.0001) Pressure is predetermined for buoyancyRelation OCEANIC
(PID.TID 0000.0001) 
(PID.TID 0000.0001) // =======================================================
(PID.TID 0000.0001) // Model current state
(PID.TID 0000.0001) // =======================================================
(PID.TID 0000.0001) 
(PID.TID 0000.0001) // =======================================================
(PID.TID 0000.0001) // Begin MONITOR dynamic field statistics
(PID.TID 0000.0001) // =======================================================
(PID.TID 0000.0001) %MON g__time_tsnumber             =                     0
(PID.TID 0000.0001) %MON g__time_secondsf             =   0.0000000000000E+00
(PID.TID 0000.0001) %MON g__dynstat_g_eta_max         =   0.0000000000000E+00
(PID.TID 0000.0001) %MON g__dynstat_g_eta_min         =   0.0000000000000E+00
(PID.TID 0000.0001) %MON g__dynstat_g_eta_mean        =   0.0000000000000E+00
(PID.TID 0000.0001) %MON g__dynstat_g_eta_sd          =   0.0000000000000E+00
(PID.TID 0000.0001) %MON g__dynstat_g_eta_del2        =   0.0000000000000E+00
(PID.TID 0000.0001) %MON g__dynstat_g_uvel_max        =   0.0000000000000E+00
(PID.TID 0000.0001) %MON g__dynstat_g_uvel_min        =   0.0000000000000E+00
(PID.TID 0000.0001) %MON g__dynstat_g_uvel_mean       =   0.0000000000000E+00
(PID.TID 0000.0001) %MON g__dynstat_g_uvel_sd         =   0.0000000000000E+00
(PID.TID 0000.0001) %MON g__dynstat_g_uvel_del2       =   0.0000000000000E+00
(PID.TID 0000.0001) %MON g__dynstat_g_vvel_max        =   0.0000000000000E+00
(PID.TID 0000.0001) %MON g__dynstat_g_vvel_min        =   0.0000000000000E+00
(PID.TID 0000.0001) %MON g__dynstat_g_vvel_mean       =   0.0000000000000E+00
(PID.TID 0000.0001) %MON g__dynstat_g_vvel_sd         =   0.0000000000000E+00
(PID.TID 0000.0001) %MON g__dynstat_g_vvel_del2       =   0.0000000000000E+00
(PID.TID 0000.0001) %MON g__dynstat_g_wvel_max        =   0.0000000000000E+00
(PID.TID 0000.0001) %MON g__dynstat_g_wvel_min        =   0.0000000000000E+00
(PID.TID 0000.0001) %MON g__dynstat_g_wvel_mean       =   0.0000000000000E+00
(PID.TID 0000.0001) %MON g__dynstat_g_wvel_sd         =   0.0000000000000E+00
(PID.TID 0000.0001) %MON g__dynstat_g_wvel_del2       =   0.0000000000000E+00
(PID.TID 0000.0001) %MON g__dynstat_g_theta_max       =   1.0000000000000E+00
(PID.TID 0000.0001) %MON g__dynstat_g_theta_min       =   0.0000000000000E+00
(PID.TID 0000.0001) %MON g__dynstat_g_theta_mean      =   1.9483302809492E-02
(PID.TID 0000.0001) %MON g__dynstat_g_theta_sd        =   1.3821614855409E-01
(PID.TID 0000.0001) %MON g__dynstat_g_theta_del2      =   0.0000000000000E+00
(PID.TID 0000.0001) %MON g__dynstat_g_salt_max        =   0.0000000000000E+00
(PID.TID 0000.0001) %MON g__dynstat_g_salt_min        =   0.0000000000000E+00
(PID.TID 0000.0001) %MON g__dynstat_g_salt_mean       =   0.0000000000000E+00
(PID.TID 0000.0001) %MON g__dynstat_g_salt_sd         =   0.0000000000000E+00
(PID.TID 0000.0001) %MON g__dynstat_g_salt_del2       =   0.0000000000000E+00
(PID.TID 0000.0001) %MON g__dynstat_g_sst_max         =   0.0000000000000E+00
(PID.TID 0000.0001) %MON g__dynstat_g_sst_min         =   0.0000000000000E+00
(PID.TID 0000.0001) %MON g__dynstat_g_sst_mean        =   0.0000000000000E+00
(PID.TID 0000.0001) %MON g__dynstat_g_sst_sd          =   0.0000000000000E+00
(PID.TID 0000.0001) %MON g__dynstat_g_sst_del2        =   0.0000000000000E+00
(PID.TID 0000.0001) %MON g__dynstat_g_sss_max         =   0.0000000000000E+00
(PID.TID 0000.0001) %MON g__dynstat_g_sss_min         =   0.0000000000000E+00
(PID.TID 0000.0001) %MON g__dynstat_g_sss_mean        =   0.0000000000000E+00
(PID.TID 0000.0001) %MON g__dynstat_g_sss_sd          =   0.0000000000000E+00
(PID.TID 0000.0001) %MON g__dynstat_g_sss_del2        =   0.0000000000000E+00
(PID.TID 0000.0001) %MON g__forcing_g_qnet_max        =   0.0000000000000E+00
(PID.TID 0000.0001) %MON g__forcing_g_qnet_min        =   0.0000000000000E+00
(PID.TID 0000.0001) %MON g__forcing_g_qnet_mean       =   0.0000000000000E+00
(PID.TID 0000.0001) %MON g__forcing_g_qnet_sd         =   0.0000000000000E+00
(PID.TID 0000.0001) %MON g__forcing_g_qnet_del2       =   0.0000000000000E+00
(PID.TID 0000.0001) %MON g__forcing_g_qsw_max         =   0.0000000000000E+00
(PID.TID 0000.0001) %MON g__forcing_g_qsw_min         =   0.0000000000000E+00
(PID.TID 0000.0001) %MON g__forcing_g_qsw_mean        =   0.0000000000000E+00
(PID.TID 0000.0001) %MON g__forcing_g_qsw_sd          =   0.0000000000000E+00
(PID.TID 0000.0001) %MON g__forcing_g_qsw_del2        =   0.0000000000000E+00
(PID.TID 0000.0001) %MON g__forcing_g_empmr_max       =   0.0000000000000E+00
(PID.TID 0000.0001) %MON g__forcing_g_empmr_min       =   0.0000000000000E+00
(PID.TID 0000.0001) %MON g__forcing_g_empmr_mean      =   0.0000000000000E+00
(PID.TID 0000.0001) %MON g__forcing_g_empmr_sd        =   0.0000000000000E+00
(PID.TID 0000.0001) %MON g__forcing_g_empmr_del2      =   0.0000000000000E+00
(PID.TID 0000.0001) %MON g__forcing_g_fu_max          =   0.0000000000000E+00
(PID.TID 0000.0001) %MON g__forcing_g_fu_min          =   0.0000000000000E+00
(PID.TID 0000.0001) %MON g__forcing_g_fu_mean         =   0.0000000000000E+00
(PID.TID 0000.0001) %MON g__forcing_g_fu_sd           =   0.0000000000000E+00
(PID.TID 0000.0001) %MON g__forcing_g_fu_del2         =   0.0000000000000E+00
(PID.TID 0000.0001) %MON g__forcing_g_fv_max          =   0.0000000000000E+00
(PID.TID 0000.0001) %MON g__forcing_g_fv_min          =   0.0000000000000E+00
(PID.TID 0000.0001) %MON g__forcing_g_fv_mean         =   0.0000000000000E+00
(PID.TID 0000.0001) %MON g__forcing_g_fv_sd           =   0.0000000000000E+00
(PID.TID 0000.0001) %MON g__forcing_g_fv_del2         =   0.0000000000000E+00
(PID.TID 0000.0001) %MON g__g_vcfl_g_uvel_max         =   0.0000000000000E+00
(PID.TID 0000.0001) %MON g__g_vcfl_g_vvel_max         =   0.0000000000000E+00
(PID.TID 0000.0001) %MON g__g_vcfl_g_wvel_max         =   0.0000000000000E+00
(PID.TID 0000.0001) %MON g__g_vcfl_g_W_hf_max         =   0.0000000000000E+00
(PID.TID 0000.0001) // =======================================================
(PID.TID 0000.0001) // End MONITOR dynamic field statistics
(PID.TID 0000.0001) // =======================================================
 myIter=            0
(PID.TID 0000.0001) // Model state written, timestep         0
(PID.TID 0000.0001) 
 cg2d: Sum(rhs),rhsMax =   0.00000000000000E+00  0.00000000000000E+00
 cg2d: Sum(rhs),rhsMax =   1.00000000000000E+00  5.58645366562891E-06
(PID.TID 0000.0001) // =======================================================
(PID.TID 0000.0001) // Begin MONITOR dynamic field statistics
(PID.TID 0000.0001) // =======================================================
(PID.TID 0000.0001) %MON g__time_tsnumber             =                     1
(PID.TID 0000.0001) %MON g__time_secondsf             =   3.6000000000000E+03
(PID.TID 0000.0001) %MON g__dynstat_g_eta_max         =   0.0000000000000E+00
(PID.TID 0000.0001) %MON g__dynstat_g_eta_min         =   0.0000000000000E+00
(PID.TID 0000.0001) %MON g__dynstat_g_eta_mean        =   0.0000000000000E+00
(PID.TID 0000.0001) %MON g__dynstat_g_eta_sd          =   0.0000000000000E+00
(PID.TID 0000.0001) %MON g__dynstat_g_eta_del2        =   0.0000000000000E+00
(PID.TID 0000.0001) %MON g__dynstat_g_uvel_max        =   2.8454118041209E-05
(PID.TID 0000.0001) %MON g__dynstat_g_uvel_min        =  -4.0963184804089E-05
(PID.TID 0000.0001) %MON g__dynstat_g_uvel_mean       =   3.6478353747149E-23
(PID.TID 0000.0001) %MON g__dynstat_g_uvel_sd         =   7.0759801422447E-06
(PID.TID 0000.0001) %MON g__dynstat_g_uvel_del2       =   0.0000000000000E+00
(PID.TID 0000.0001) %MON g__dynstat_g_vvel_max        =   2.8454118041209E-05
(PID.TID 0000.0001) %MON g__dynstat_g_vvel_min        =  -4.0963184804089E-05
(PID.TID 0000.0001) %MON g__dynstat_g_vvel_mean       =   3.6478353747149E-23
(PID.TID 0000.0001) %MON g__dynstat_g_vvel_sd         =   7.0759801422447E-06
(PID.TID 0000.0001) %MON g__dynstat_g_vvel_del2       =   0.0000000000000E+00
(PID.TID 0000.0001) %MON g__dynstat_g_wvel_max        =   0.0000000000000E+00
(PID.TID 0000.0001) %MON g__dynstat_g_wvel_min        =   0.0000000000000E+00
(PID.TID 0000.0001) %MON g__dynstat_g_wvel_mean       =   0.0000000000000E+00
(PID.TID 0000.0001) %MON g__dynstat_g_wvel_sd         =   0.0000000000000E+00
(PID.TID 0000.0001) %MON g__dynstat_g_wvel_del2       =   0.0000000000000E+00
(PID.TID 0000.0001) %MON g__dynstat_g_theta_max       =   8.8422269437216E-01
(PID.TID 0000.0001) %MON g__dynstat_g_theta_min       =   3.3468581685879-102
(PID.TID 0000.0001) %MON g__dynstat_g_theta_mean      =   1.9483302809492E-02
(PID.TID 0000.0001) %MON g__dynstat_g_theta_sd        =   1.2236242401215E-01
(PID.TID 0000.0001) %MON g__dynstat_g_theta_del2      =   0.0000000000000E+00
(PID.TID 0000.0001) %MON g__dynstat_g_salt_max        =   3.7510097571167E-03
(PID.TID 0000.0001) %MON g__dynstat_g_salt_min        =  -6.1527726403750E-03
(PID.TID 0000.0001) %MON g__dynstat_g_salt_mean       =  -2.4696880335375E-17
(PID.TID 0000.0001) %MON g__dynstat_g_salt_sd         =   1.0347596314678E-03
(PID.TID 0000.0001) %MON g__dynstat_g_salt_del2       =   0.0000000000000E+00
(PID.TID 0000.0001) %MON g__dynstat_g_sst_max         =   1.6619323670592E-02
(PID.TID 0000.0001) %MON g__dynstat_g_sst_min         =   1.6619323670592E-02
(PID.TID 0000.0001) %MON g__dynstat_g_sst_mean        =   1.6619323670592E-02
(PID.TID 0000.0001) %MON g__dynstat_g_sst_sd          =   0.0000000000000E+00
(PID.TID 0000.0001) %MON g__dynstat_g_sst_del2        =   0.0000000000000E+00
(PID.TID 0000.0001) %MON g__dynstat_g_sss_max         =   9.3148723957626E-04
(PID.TID 0000.0001) %MON g__dynstat_g_sss_min         =   9.3148723957626E-04
(PID.TID 0000.0001) %MON g__dynstat_g_sss_mean        =   9.3148723957626E-04
(PID.TID 0000.0001) %MON g__dynstat_g_sss_sd          =   0.0000000000000E+00
(PID.TID 0000.0001) %MON g__dynstat_g_sss_del2        =   0.0000000000000E+00
(PID.TID 0000.0001) %MON g__forcing_g_qnet_max        =   0.0000000000000E+00
(PID.TID 0000.0001) %MON g__forcing_g_qnet_min        =   0.0000000000000E+00
(PID.TID 0000.0001) %MON g__forcing_g_qnet_mean       =   0.0000000000000E+00
(PID.TID 0000.0001) %MON g__forcing_g_qnet_sd         =   0.0000000000000E+00
(PID.TID 0000.0001) %MON g__forcing_g_qnet_del2       =   0.0000000000000E+00
(PID.TID 0000.0001) %MON g__forcing_g_qsw_max         =   0.0000000000000E+00
(PID.TID 0000.0001) %MON g__forcing_g_qsw_min         =   0.0000000000000E+00
(PID.TID 0000.0001) %MON g__forcing_g_qsw_mean        =   0.0000000000000E+00
(PID.TID 0000.0001) %MON g__forcing_g_qsw_sd          =   0.0000000000000E+00
(PID.TID 0000.0001) %MON g__forcing_g_qsw_del2        =   0.0000000000000E+00
(PID.TID 0000.0001) %MON g__forcing_g_empmr_max       =   0.0000000000000E+00
(PID.TID 0000.0001) %MON g__forcing_g_empmr_min       =   0.0000000000000E+00
(PID.TID 0000.0001) %MON g__forcing_g_empmr_mean      =   0.0000000000000E+00
(PID.TID 0000.0001) %MON g__forcing_g_empmr_sd        =   0.0000000000000E+00
(PID.TID 0000.0001) %MON g__forcing_g_empmr_del2      =   0.0000000000000E+00
(PID.TID 0000.0001) %MON g__forcing_g_fu_max          =   0.0000000000000E+00
(PID.TID 0000.0001) %MON g__forcing_g_fu_min          =   0.0000000000000E+00
(PID.TID 0000.0001) %MON g__forcing_g_fu_mean         =   0.0000000000000E+00
(PID.TID 0000.0001) %MON g__forcing_g_fu_sd           =   0.0000000000000E+00
(PID.TID 0000.0001) %MON g__forcing_g_fu_del2         =   0.0000000000000E+00
(PID.TID 0000.0001) %MON g__forcing_g_fv_max          =   0.0000000000000E+00
(PID.TID 0000.0001) %MON g__forcing_g_fv_min          =   0.0000000000000E+00
(PID.TID 0000.0001) %MON g__forcing_g_fv_mean         =   0.0000000000000E+00
(PID.TID 0000.0001) %MON g__forcing_g_fv_sd           =   0.0000000000000E+00
(PID.TID 0000.0001) %MON g__forcing_g_fv_del2         =   0.0000000000000E+00
(PID.TID 0000.0001) %MON g__g_vcfl_g_uvel_max         =   2.9493493058944E-05
(PID.TID 0000.0001) %MON g__g_vcfl_g_vvel_max         =   2.9493493058944E-05
(PID.TID 0000.0001) %MON g__g_vcfl_g_wvel_max         =   0.0000000000000E+00
(PID.TID 0000.0001) %MON g__g_vcfl_g_W_hf_max         =   0.0000000000000E+00
(PID.TID 0000.0001) // =======================================================
(PID.TID 0000.0001) // End MONITOR dynamic field statistics
(PID.TID 0000.0001) // =======================================================
 myIter=            1
(PID.TID 0000.0001) // Model state written, timestep         1
(PID.TID 0000.0001) 
 cg2d: Sum(rhs),rhsMax =  -1.00000000000000E+00  2.33096529750089E-06
 cg2d: Sum(rhs),rhsMax =   1.00000000000000E+00  1.08504365899875E-05
(PID.TID 0000.0001) // =======================================================
(PID.TID 0000.0001) // Begin MONITOR dynamic field statistics
(PID.TID 0000.0001) // =======================================================
(PID.TID 0000.0001) %MON g__time_tsnumber             =                     2
(PID.TID 0000.0001) %MON g__time_secondsf             =   7.2000000000000E+03
(PID.TID 0000.0001) %MON g__dynstat_g_eta_max         =   6.2020922327238E-04
(PID.TID 0000.0001) %MON g__dynstat_g_eta_min         =   6.2020922327238E-04
(PID.TID 0000.0001) %MON g__dynstat_g_eta_mean        =   6.2020922327238E-04
(PID.TID 0000.0001) %MON g__dynstat_g_eta_sd          =   0.0000000000000E+00
(PID.TID 0000.0001) %MON g__dynstat_g_eta_del2        =   0.0000000000000E+00
(PID.TID 0000.0001) %MON g__dynstat_g_uvel_max        =   4.0672487510046E-05
(PID.TID 0000.0001) %MON g__dynstat_g_uvel_min        =  -4.3243463197154E-05
(PID.TID 0000.0001) %MON g__dynstat_g_uvel_mean       =   8.3978627310109E-09
(PID.TID 0000.0001) %MON g__dynstat_g_uvel_sd         =   1.0887549565782E-05
(PID.TID 0000.0001) %MON g__dynstat_g_uvel_del2       =   0.0000000000000E+00
(PID.TID 0000.0001) %MON g__dynstat_g_vvel_max        =   1.5051463840566E-05
(PID.TID 0000.0001) %MON g__dynstat_g_vvel_min        =  -2.3979719725359E-05
(PID.TID 0000.0001) %MON g__dynstat_g_vvel_mean       =   8.3978627310108E-09
(PID.TID 0000.0001) %MON g__dynstat_g_vvel_sd         =   4.4871931703200E-06
(PID.TID 0000.0001) %MON g__dynstat_g_vvel_del2       =   0.0000000000000E+00
(PID.TID 0000.0001) %MON g__dynstat_g_wvel_max        =   0.0000000000000E+00
(PID.TID 0000.0001) %MON g__dynstat_g_wvel_min        =   0.0000000000000E+00
(PID.TID 0000.0001) %MON g__dynstat_g_wvel_mean       =   0.0000000000000E+00
(PID.TID 0000.0001) %MON g__dynstat_g_wvel_sd         =   0.0000000000000E+00
(PID.TID 0000.0001) %MON g__dynstat_g_wvel_del2       =   0.0000000000000E+00
(PID.TID 0000.0001) %MON g__dynstat_g_theta_max       =   7.8963766433026E-01
(PID.TID 0000.0001) %MON g__dynstat_g_theta_min       =   6.0437045652937-102
(PID.TID 0000.0001) %MON g__dynstat_g_theta_mean      =   1.9381605517711E-02
(PID.TID 0000.0001) %MON g__dynstat_g_theta_sd        =   1.0999521521968E-01
(PID.TID 0000.0001) %MON g__dynstat_g_theta_del2      =   0.0000000000000E+00
(PID.TID 0000.0001) %MON g__dynstat_g_salt_max        =   4.9193449493090E-03
(PID.TID 0000.0001) %MON g__dynstat_g_salt_min        =  -1.0398556294875E-02
(PID.TID 0000.0001) %MON g__dynstat_g_salt_mean       =  -2.4534259318541E-05
(PID.TID 0000.0001) %MON g__dynstat_g_salt_sd         =   1.6600154116693E-03
(PID.TID 0000.0001) %MON g__dynstat_g_salt_del2       =   0.0000000000000E+00
(PID.TID 0000.0001) %MON g__dynstat_g_sst_max         =   3.9305865100645E-02
(PID.TID 0000.0001) %MON g__dynstat_g_sst_min         =   3.9305865100645E-02
(PID.TID 0000.0001) %MON g__dynstat_g_sst_mean        =   3.9305865100645E-02
(PID.TID 0000.0001) %MON g__dynstat_g_sst_sd          =   6.9388939039072E-18
(PID.TID 0000.0001) %MON g__dynstat_g_sst_del2        =   0.0000000000000E+00
(PID.TID 0000.0001) %MON g__dynstat_g_sss_max         =   1.7686357397088E-03
(PID.TID 0000.0001) %MON g__dynstat_g_sss_min         =   1.7686357397088E-03
(PID.TID 0000.0001) %MON g__dynstat_g_sss_mean        =   1.7686357397088E-03
(PID.TID 0000.0001) %MON g__dynstat_g_sss_sd          =   0.0000000000000E+00
(PID.TID 0000.0001) %MON g__dynstat_g_sss_del2        =   0.0000000000000E+00
(PID.TID 0000.0001) %MON g__forcing_g_qnet_max        =   5.9354280467127E+01
(PID.TID 0000.0001) %MON g__forcing_g_qnet_min        =   5.9354280467127E+01
(PID.TID 0000.0001) %MON g__forcing_g_qnet_mean       =   5.9354280467127E+01
(PID.TID 0000.0001) %MON g__forcing_g_qnet_sd         =   0.0000000000000E+00
(PID.TID 0000.0001) %MON g__forcing_g_qnet_del2       =   0.0000000000000E+00
(PID.TID 0000.0001) %MON g__forcing_g_qsw_max         =   0.0000000000000E+00
(PID.TID 0000.0001) %MON g__forcing_g_qsw_min         =   0.0000000000000E+00
(PID.TID 0000.0001) %MON g__forcing_g_qsw_mean        =   0.0000000000000E+00
(PID.TID 0000.0001) %MON g__forcing_g_qsw_sd          =   0.0000000000000E+00
(PID.TID 0000.0001) %MON g__forcing_g_qsw_del2        =   0.0000000000000E+00
(PID.TID 0000.0001) %MON g__forcing_g_empmr_max       =  -1.7693190897226E-04
(PID.TID 0000.0001) %MON g__forcing_g_empmr_min       =  -1.7693190897226E-04
(PID.TID 0000.0001) %MON g__forcing_g_empmr_mean      =  -1.7693190897226E-04
(PID.TID 0000.0001) %MON g__forcing_g_empmr_sd        =   0.0000000000000E+00
(PID.TID 0000.0001) %MON g__forcing_g_empmr_del2      =   0.0000000000000E+00
(PID.TID 0000.0001) %MON g__forcing_g_fu_max          =   7.6851819010458E-07
(PID.TID 0000.0001) %MON g__forcing_g_fu_min          =   7.6851819010458E-07
(PID.TID 0000.0001) %MON g__forcing_g_fu_mean         =   7.6851819010458E-07
(PID.TID 0000.0001) %MON g__forcing_g_fu_sd           =   0.0000000000000E+00
(PID.TID 0000.0001) %MON g__forcing_g_fu_del2         =   0.0000000000000E+00
(PID.TID 0000.0001) %MON g__forcing_g_fv_max          =   7.6851819010458E-07
(PID.TID 0000.0001) %MON g__forcing_g_fv_min          =   7.6851819010458E-07
(PID.TID 0000.0001) %MON g__forcing_g_fv_mean         =   7.6851819010458E-07
(PID.TID 0000.0001) %MON g__forcing_g_fv_sd           =   0.0000000000000E+00
(PID.TID 0000.0001) %MON g__forcing_g_fv_del2         =   0.0000000000000E+00
(PID.TID 0000.0001) %MON g__g_vcfl_g_uvel_max         =   3.1135293501951E-05
(PID.TID 0000.0001) %MON g__g_vcfl_g_vvel_max         =   1.7265398202258E-05
(PID.TID 0000.0001) %MON g__g_vcfl_g_wvel_max         =   0.0000000000000E+00
(PID.TID 0000.0001) %MON g__g_vcfl_g_W_hf_max         =   0.0000000000000E+00
(PID.TID 0000.0001) // =======================================================
(PID.TID 0000.0001) // End MONITOR dynamic field statistics
(PID.TID 0000.0001) // =======================================================
 myIter=            2
(PID.TID 0000.0001) // Model state written, timestep         2
(PID.TID 0000.0001) 
 cg2d: Sum(rhs),rhsMax =  -1.00000000000000E+00  7.81477483228683E-06
 cg2d: Sum(rhs),rhsMax =   1.00000000000000E+00  1.54115956505727E-05
(PID.TID 0000.0001) // =======================================================
(PID.TID 0000.0001) // Begin MONITOR dynamic field statistics
(PID.TID 0000.0001) // =======================================================
(PID.TID 0000.0001) %MON g__time_tsnumber             =                     3
(PID.TID 0000.0001) %MON g__time_secondsf             =   1.0800000000000E+04
(PID.TID 0000.0001) %MON g__dynstat_g_eta_max         =   2.0793082736901E-03
(PID.TID 0000.0001) %MON g__dynstat_g_eta_min         =   2.0793082736901E-03
(PID.TID 0000.0001) %MON g__dynstat_g_eta_mean        =   2.0793082736901E-03
(PID.TID 0000.0001) %MON g__dynstat_g_eta_sd          =   0.0000000000000E+00
(PID.TID 0000.0001) %MON g__dynstat_g_eta_del2        =   0.0000000000000E+00
(PID.TID 0000.0001) %MON g__dynstat_g_uvel_max        =   2.0694921270366E-04
(PID.TID 0000.0001) %MON g__dynstat_g_uvel_min        =  -1.2468388298553E-04
(PID.TID 0000.0001) %MON g__dynstat_g_uvel_mean       =   3.0178191890938E-08
(PID.TID 0000.0001) %MON g__dynstat_g_uvel_sd         =   3.7987527419072E-05
(PID.TID 0000.0001) %MON g__dynstat_g_uvel_del2       =   0.0000000000000E+00
(PID.TID 0000.0001) %MON g__dynstat_g_vvel_max        =   1.2686454451174E-04
(PID.TID 0000.0001) %MON g__dynstat_g_vvel_min        =  -6.3586368779090E-05
(PID.TID 0000.0001) %MON g__dynstat_g_vvel_mean       =   2.0503854024814E-08
(PID.TID 0000.0001) %MON g__dynstat_g_vvel_sd         =   2.1280983371897E-05
(PID.TID 0000.0001) %MON g__dynstat_g_vvel_del2       =   0.0000000000000E+00
(PID.TID 0000.0001) %MON g__dynstat_g_wvel_max        =   0.0000000000000E+00
(PID.TID 0000.0001) %MON g__dynstat_g_wvel_min        =   0.0000000000000E+00
(PID.TID 0000.0001) %MON g__dynstat_g_wvel_mean       =   0.0000000000000E+00
(PID.TID 0000.0001) %MON g__dynstat_g_wvel_sd         =   0.0000000000000E+00
(PID.TID 0000.0001) %MON g__dynstat_g_wvel_del2       =   0.0000000000000E+00
(PID.TID 0000.0001) %MON g__dynstat_g_theta_max       =   7.5100655166781E-01
(PID.TID 0000.0001) %MON g__dynstat_g_theta_min       =   4.9281347943151E-49
(PID.TID 0000.0001) %MON g__dynstat_g_theta_mean      =   1.9142347319578E-02
(PID.TID 0000.0001) %MON g__dynstat_g_theta_sd        =   1.0489436898077E-01
(PID.TID 0000.0001) %MON g__dynstat_g_theta_del2      =   0.0000000000000E+00
(PID.TID 0000.0001) %MON g__dynstat_g_salt_max        =   2.4112011109594E-03
(PID.TID 0000.0001) %MON g__dynstat_g_salt_min        =  -9.5102709928425E-03
(PID.TID 0000.0001) %MON g__dynstat_g_salt_mean       =  -8.2257956978544E-05
(PID.TID 0000.0001) %MON g__dynstat_g_salt_sd         =   1.3964025668097E-03
(PID.TID 0000.0001) %MON g__dynstat_g_salt_del2       =   0.0000000000000E+00
(PID.TID 0000.0001) %MON g__dynstat_g_sst_max         =   5.4148394963624E-02
(PID.TID 0000.0001) %MON g__dynstat_g_sst_min         =   5.4148394963624E-02
(PID.TID 0000.0001) %MON g__dynstat_g_sst_mean        =   5.4148394963624E-02
(PID.TID 0000.0001) %MON g__dynstat_g_sst_sd          =   0.0000000000000E+00
(PID.TID 0000.0001) %MON g__dynstat_g_sst_del2        =   0.0000000000000E+00
(PID.TID 0000.0001) %MON g__dynstat_g_sss_max         =   1.3130544666557E-03
(PID.TID 0000.0001) %MON g__dynstat_g_sss_min         =   1.3130544666557E-03
(PID.TID 0000.0001) %MON g__dynstat_g_sss_mean        =   1.3130544666557E-03
(PID.TID 0000.0001) %MON g__dynstat_g_sss_sd          =   0.0000000000000E+00
(PID.TID 0000.0001) %MON g__dynstat_g_sss_del2        =   0.0000000000000E+00
(PID.TID 0000.0001) %MON g__forcing_g_qnet_max        =   1.3963988565770E+02
(PID.TID 0000.0001) %MON g__forcing_g_qnet_min        =   1.3963988565770E+02
(PID.TID 0000.0001) %MON g__forcing_g_qnet_mean       =   1.3963988565770E+02
(PID.TID 0000.0001) %MON g__forcing_g_qnet_sd         =   0.0000000000000E+00
(PID.TID 0000.0001) %MON g__forcing_g_qnet_del2       =   0.0000000000000E+00
(PID.TID 0000.0001) %MON g__forcing_g_qsw_max         =  -1.1338288829864E-04
(PID.TID 0000.0001) %MON g__forcing_g_qsw_min         =  -1.1338288829864E-04
(PID.TID 0000.0001) %MON g__forcing_g_qsw_mean        =  -1.1338288829864E-04
(PID.TID 0000.0001) %MON g__forcing_g_qsw_sd          =   1.3552527156069E-20
(PID.TID 0000.0001) %MON g__forcing_g_qsw_del2        =   0.0000000000000E+00
(PID.TID 0000.0001) %MON g__forcing_g_empmr_max       =  -4.1624853466066E-04
(PID.TID 0000.0001) %MON g__forcing_g_empmr_min       =  -4.1624853466066E-04
(PID.TID 0000.0001) %MON g__forcing_g_empmr_mean      =  -4.1624853466066E-04
(PID.TID 0000.0001) %MON g__forcing_g_empmr_sd        =   0.0000000000000E+00
(PID.TID 0000.0001) %MON g__forcing_g_empmr_del2      =   0.0000000000000E+00
(PID.TID 0000.0001) %MON g__forcing_g_fu_max          =   1.8387229795060E-06
(PID.TID 0000.0001) %MON g__forcing_g_fu_min          =   1.8387229795060E-06
(PID.TID 0000.0001) %MON g__forcing_g_fu_mean         =   1.8387229795060E-06
(PID.TID 0000.0001) %MON g__forcing_g_fu_sd           =   0.0000000000000E+00
(PID.TID 0000.0001) %MON g__forcing_g_fu_del2         =   0.0000000000000E+00
(PID.TID 0000.0001) %MON g__forcing_g_fv_max          =   1.8387229795060E-06
(PID.TID 0000.0001) %MON g__forcing_g_fv_min          =   1.8387229795060E-06
(PID.TID 0000.0001) %MON g__forcing_g_fv_mean         =   1.8387229795060E-06
(PID.TID 0000.0001) %MON g__forcing_g_fv_sd           =   0.0000000000000E+00
(PID.TID 0000.0001) %MON g__forcing_g_fv_del2         =   0.0000000000000E+00
(PID.TID 0000.0001) %MON g__g_vcfl_g_uvel_max         =   1.4900343314663E-04
(PID.TID 0000.0001) %MON g__g_vcfl_g_vvel_max         =   9.1342472048455E-05
(PID.TID 0000.0001) %MON g__g_vcfl_g_wvel_max         =   0.0000000000000E+00
(PID.TID 0000.0001) %MON g__g_vcfl_g_W_hf_max         =   0.0000000000000E+00
(PID.TID 0000.0001) // =======================================================
(PID.TID 0000.0001) // End MONITOR dynamic field statistics
(PID.TID 0000.0001) // =======================================================
 myIter=            3
(PID.TID 0000.0001) // Model state written, timestep         3
(PID.TID 0000.0001) 
 cg2d: Sum(rhs),rhsMax =  -1.00000000000000E+00  1.53293366008264E-05
 cg2d: Sum(rhs),rhsMax =   1.00000000000000E+00  1.91662515894767E-05
(PID.TID 0000.0001) // =======================================================
(PID.TID 0000.0001) // Begin MONITOR dynamic field statistics
(PID.TID 0000.0001) // =======================================================
(PID.TID 0000.0001) %MON g__time_tsnumber             =                     4
(PID.TID 0000.0001) %MON g__time_secondsf             =   1.4400000000000E+04
(PID.TID 0000.0001) %MON g__dynstat_g_eta_max         =   4.0787376614621E-03
(PID.TID 0000.0001) %MON g__dynstat_g_eta_min         =   4.0787376614621E-03
(PID.TID 0000.0001) %MON g__dynstat_g_eta_mean        =   4.0787376614621E-03
(PID.TID 0000.0001) %MON g__dynstat_g_eta_sd          =   0.0000000000000E+00
(PID.TID 0000.0001) %MON g__dynstat_g_eta_del2        =   0.0000000000000E+00
(PID.TID 0000.0001) %MON g__dynstat_g_uvel_max        =   7.5542189913781E-04
(PID.TID 0000.0001) %MON g__dynstat_g_uvel_min        =  -4.7969822800358E-04
(PID.TID 0000.0001) %MON g__dynstat_g_uvel_mean       =   6.3903005675362E-08
(PID.TID 0000.0001) %MON g__dynstat_g_uvel_sd         =   1.2777076599922E-04
(PID.TID 0000.0001) %MON g__dynstat_g_uvel_del2       =   0.0000000000000E+00
(PID.TID 0000.0001) %MON g__dynstat_g_vvel_max        =   2.4410043767903E-04
(PID.TID 0000.0001) %MON g__dynstat_g_vvel_min        =  -1.3415129333726E-04
(PID.TID 0000.0001) %MON g__dynstat_g_vvel_mean       =   2.8663686061541E-08
(PID.TID 0000.0001) %MON g__dynstat_g_vvel_sd         =   4.1870274751579E-05
(PID.TID 0000.0001) %MON g__dynstat_g_vvel_del2       =   0.0000000000000E+00
(PID.TID 0000.0001) %MON g__dynstat_g_wvel_max        =   0.0000000000000E+00
(PID.TID 0000.0001) %MON g__dynstat_g_wvel_min        =   0.0000000000000E+00
(PID.TID 0000.0001) %MON g__dynstat_g_wvel_mean       =   0.0000000000000E+00
(PID.TID 0000.0001) %MON g__dynstat_g_wvel_sd         =   0.0000000000000E+00
(PID.TID 0000.0001) %MON g__dynstat_g_wvel_del2       =   0.0000000000000E+00
(PID.TID 0000.0001) %MON g__dynstat_g_theta_max       =   7.9831016352975E-01
(PID.TID 0000.0001) %MON g__dynstat_g_theta_min       =   9.4435219086581E-48
(PID.TID 0000.0001) %MON g__dynstat_g_theta_mean      =   1.8814444345546E-02
(PID.TID 0000.0001) %MON g__dynstat_g_theta_sd        =   1.1066209385885E-01
(PID.TID 0000.0001) %MON g__dynstat_g_theta_del2      =   0.0000000000000E+00
(PID.TID 0000.0001) %MON g__dynstat_g_salt_max        =   1.0561060501263E-49
(PID.TID 0000.0001) %MON g__dynstat_g_salt_min        =  -4.2689591498215E-03
(PID.TID 0000.0001) %MON g__dynstat_g_salt_mean       =  -1.6136469210481E-04
(PID.TID 0000.0001) %MON g__dynstat_g_salt_sd         =   6.6458037968557E-04
(PID.TID 0000.0001) %MON g__dynstat_g_salt_del2       =   0.0000000000000E+00
(PID.TID 0000.0001) %MON g__dynstat_g_sst_max         =   5.1007333379376E-02
(PID.TID 0000.0001) %MON g__dynstat_g_sst_min         =   5.1007333379376E-02
(PID.TID 0000.0001) %MON g__dynstat_g_sst_mean        =   5.1007333379376E-02
(PID.TID 0000.0001) %MON g__dynstat_g_sst_sd          =   0.0000000000000E+00
(PID.TID 0000.0001) %MON g__dynstat_g_sst_del2        =   0.0000000000000E+00
(PID.TID 0000.0001) %MON g__dynstat_g_sss_max         =  -1.1251489953397E-03
(PID.TID 0000.0001) %MON g__dynstat_g_sss_min         =  -1.1251489953397E-03
(PID.TID 0000.0001) %MON g__dynstat_g_sss_mean        =  -1.1251489953397E-03
(PID.TID 0000.0001) %MON g__dynstat_g_sss_sd          =   2.1684043449710E-19
(PID.TID 0000.0001) %MON g__dynstat_g_sss_del2        =   0.0000000000000E+00
(PID.TID 0000.0001) %MON g__forcing_g_qnet_max        =   1.9137623771236E+02
(PID.TID 0000.0001) %MON g__forcing_g_qnet_min        =   1.9137623771236E+02
(PID.TID 0000.0001) %MON g__forcing_g_qnet_mean       =   1.9137623771236E+02
(PID.TID 0000.0001) %MON g__forcing_g_qnet_sd         =   0.0000000000000E+00
(PID.TID 0000.0001) %MON g__forcing_g_qnet_del2       =   0.0000000000000E+00
(PID.TID 0000.0001) %MON g__forcing_g_qsw_max         =  -1.3065575654442E-03
(PID.TID 0000.0001) %MON g__forcing_g_qsw_min         =  -1.3065575654442E-03
(PID.TID 0000.0001) %MON g__forcing_g_qsw_mean        =  -1.3065575654442E-03
(PID.TID 0000.0001) %MON g__forcing_g_qsw_sd          =   0.0000000000000E+00
(PID.TID 0000.0001) %MON g__forcing_g_qsw_del2        =   0.0000000000000E+00
(PID.TID 0000.0001) %MON g__forcing_g_empmr_max       =  -5.7039277256626E-04
(PID.TID 0000.0001) %MON g__forcing_g_empmr_min       =  -5.7039277256626E-04
(PID.TID 0000.0001) %MON g__forcing_g_empmr_mean      =  -5.7039277256626E-04
(PID.TID 0000.0001) %MON g__forcing_g_empmr_sd        =   0.0000000000000E+00
(PID.TID 0000.0001) %MON g__forcing_g_empmr_del2      =   0.0000000000000E+00
(PID.TID 0000.0001) %MON g__forcing_g_fu_max          =   2.8610032213441E-06
(PID.TID 0000.0001) %MON g__forcing_g_fu_min          =   2.8610032213441E-06
(PID.TID 0000.0001) %MON g__forcing_g_fu_mean         =   2.8610032213441E-06
(PID.TID 0000.0001) %MON g__forcing_g_fu_sd           =   0.0000000000000E+00
(PID.TID 0000.0001) %MON g__forcing_g_fu_del2         =   0.0000000000000E+00
(PID.TID 0000.0001) %MON g__forcing_g_fv_max          =   2.8610032213441E-06
(PID.TID 0000.0001) %MON g__forcing_g_fv_min          =   2.8610032213441E-06
(PID.TID 0000.0001) %MON g__forcing_g_fv_mean         =   2.8610032213441E-06
(PID.TID 0000.0001) %MON g__forcing_g_fv_sd           =   0.0000000000000E+00
(PID.TID 0000.0001) %MON g__forcing_g_fv_del2         =   0.0000000000000E+00
(PID.TID 0000.0001) %MON g__g_vcfl_g_uvel_max         =   5.4390376737922E-04
(PID.TID 0000.0001) %MON g__g_vcfl_g_vvel_max         =   1.7575231512890E-04
(PID.TID 0000.0001) %MON g__g_vcfl_g_wvel_max         =   0.0000000000000E+00
(PID.TID 0000.0001) %MON g__g_vcfl_g_W_hf_max         =   0.0000000000000E+00
(PID.TID 0000.0001) // =======================================================
(PID.TID 0000.0001) // End MONITOR dynamic field statistics
(PID.TID 0000.0001) // =======================================================
 myIter=            4
(PID.TID 0000.0001) // Model state written, timestep         4
(PID.TID 0000.0001) 
 cg2d: Sum(rhs),rhsMax =  -1.00000000000000E+00  2.23697487413002E-05
 cg2d: Sum(rhs),rhsMax =   1.00000000000000E+00  2.21776143798627E-05
(PID.TID 0000.0001) // =======================================================
(PID.TID 0000.0001) // Begin MONITOR dynamic field statistics
(PID.TID 0000.0001) // =======================================================
(PID.TID 0000.0001) %MON g__time_tsnumber             =                     5
(PID.TID 0000.0001) %MON g__time_secondsf             =   1.8000000000000E+04
(PID.TID 0000.0001) %MON g__dynstat_g_eta_max         =   5.9520081686771E-03
(PID.TID 0000.0001) %MON g__dynstat_g_eta_min         =   5.9520081686771E-03
(PID.TID 0000.0001) %MON g__dynstat_g_eta_mean        =   5.9520081686771E-03
(PID.TID 0000.0001) %MON g__dynstat_g_eta_sd          =   0.0000000000000E+00
(PID.TID 0000.0001) %MON g__dynstat_g_eta_del2        =   0.0000000000000E+00
(PID.TID 0000.0001) %MON g__dynstat_g_uvel_max        =   1.4329074339229E-03
(PID.TID 0000.0001) %MON g__dynstat_g_uvel_min        =  -8.9041156295811E-04
(PID.TID 0000.0001) %MON g__dynstat_g_uvel_mean       =   1.0319819707785E-07
(PID.TID 0000.0001) %MON g__dynstat_g_uvel_sd         =   2.4554981916355E-04
(PID.TID 0000.0001) %MON g__dynstat_g_uvel_del2       =   0.0000000000000E+00
(PID.TID 0000.0001) %MON g__dynstat_g_vvel_max        =   2.4137940097528E-04
(PID.TID 0000.0001) %MON g__dynstat_g_vvel_min        =  -2.8225048040275E-04
(PID.TID 0000.0001) %MON g__dynstat_g_vvel_mean       =   2.5587784941393E-08
(PID.TID 0000.0001) %MON g__dynstat_g_vvel_sd         =   5.9603286612613E-05
(PID.TID 0000.0001) %MON g__dynstat_g_vvel_del2       =   0.0000000000000E+00
(PID.TID 0000.0001) %MON g__dynstat_g_wvel_max        =   0.0000000000000E+00
(PID.TID 0000.0001) %MON g__dynstat_g_wvel_min        =   0.0000000000000E+00
(PID.TID 0000.0001) %MON g__dynstat_g_wvel_mean       =   0.0000000000000E+00
(PID.TID 0000.0001) %MON g__dynstat_g_wvel_sd         =   0.0000000000000E+00
(PID.TID 0000.0001) %MON g__dynstat_g_wvel_del2       =   0.0000000000000E+00
(PID.TID 0000.0001) %MON g__dynstat_g_theta_max       =   9.1150091692088E-01
(PID.TID 0000.0001) %MON g__dynstat_g_theta_min       =  -9.9491185332782E-03
(PID.TID 0000.0001) %MON g__dynstat_g_theta_mean      =   1.8507111752478E-02
(PID.TID 0000.0001) %MON g__dynstat_g_theta_sd        =   1.2597996854237E-01
(PID.TID 0000.0001) %MON g__dynstat_g_theta_del2      =   0.0000000000000E+00
(PID.TID 0000.0001) %MON g__dynstat_g_salt_max        =   1.2763860547660E-02
(PID.TID 0000.0001) %MON g__dynstat_g_salt_min        =  -1.2794542161807E-02
(PID.TID 0000.0001) %MON g__dynstat_g_salt_mean       =  -2.3548695216459E-04
(PID.TID 0000.0001) %MON g__dynstat_g_salt_sd         =   2.7852966542043E-03
(PID.TID 0000.0001) %MON g__dynstat_g_salt_del2       =   0.0000000000000E+00
(PID.TID 0000.0001) %MON g__dynstat_g_sst_max         =   3.0157115952596E-02
(PID.TID 0000.0001) %MON g__dynstat_g_sst_min         =   3.0157115952596E-02
(PID.TID 0000.0001) %MON g__dynstat_g_sst_mean        =   3.0157115952596E-02
(PID.TID 0000.0001) %MON g__dynstat_g_sst_sd          =   0.0000000000000E+00
(PID.TID 0000.0001) %MON g__dynstat_g_sst_del2        =   0.0000000000000E+00
(PID.TID 0000.0001) %MON g__dynstat_g_sss_max         =  -5.0954817565829E-03
(PID.TID 0000.0001) %MON g__dynstat_g_sss_min         =  -5.0954817565829E-03
(PID.TID 0000.0001) %MON g__dynstat_g_sss_mean        =  -5.0954817565829E-03
(PID.TID 0000.0001) %MON g__dynstat_g_sss_sd          =   0.0000000000000E+00
(PID.TID 0000.0001) %MON g__dynstat_g_sss_del2        =   0.0000000000000E+00
(PID.TID 0000.0001) %MON g__forcing_g_qnet_max        =   1.7937060669086E+02
(PID.TID 0000.0001) %MON g__forcing_g_qnet_min        =   1.7937060669086E+02
(PID.TID 0000.0001) %MON g__forcing_g_qnet_mean       =   1.7937060669086E+02
(PID.TID 0000.0001) %MON g__forcing_g_qnet_sd         =   0.0000000000000E+00
(PID.TID 0000.0001) %MON g__forcing_g_qnet_del2       =   0.0000000000000E+00
(PID.TID 0000.0001) %MON g__forcing_g_qsw_max         =  -4.2285103794367E-03
(PID.TID 0000.0001) %MON g__forcing_g_qsw_min         =  -4.2285103794367E-03
(PID.TID 0000.0001) %MON g__forcing_g_qsw_mean        =  -4.2285103794367E-03
(PID.TID 0000.0001) %MON g__forcing_g_qsw_sd          =   0.0000000000000E+00
(PID.TID 0000.0001) %MON g__forcing_g_qsw_del2        =   0.0000000000000E+00
(PID.TID 0000.0001) %MON g__forcing_g_empmr_max       =  -5.3440244747483E-04
(PID.TID 0000.0001) %MON g__forcing_g_empmr_min       =  -5.3440244747483E-04
(PID.TID 0000.0001) %MON g__forcing_g_empmr_mean      =  -5.3440244747483E-04
(PID.TID 0000.0001) %MON g__forcing_g_empmr_sd        =   0.0000000000000E+00
(PID.TID 0000.0001) %MON g__forcing_g_empmr_del2      =   0.0000000000000E+00
(PID.TID 0000.0001) %MON g__forcing_g_fu_max          =   3.5633020959898E-06
(PID.TID 0000.0001) %MON g__forcing_g_fu_min          =   3.5633020959898E-06
(PID.TID 0000.0001) %MON g__forcing_g_fu_mean         =   3.5633020959898E-06
(PID.TID 0000.0001) %MON g__forcing_g_fu_sd           =   0.0000000000000E+00
(PID.TID 0000.0001) %MON g__forcing_g_fu_del2         =   0.0000000000000E+00
(PID.TID 0000.0001) %MON g__forcing_g_fv_max          =   3.5633020959898E-06
(PID.TID 0000.0001) %MON g__forcing_g_fv_min          =   3.5633020959898E-06
(PID.TID 0000.0001) %MON g__forcing_g_fv_mean         =   3.5633020959898E-06
(PID.TID 0000.0001) %MON g__forcing_g_fv_sd           =   0.0000000000000E+00
(PID.TID 0000.0001) %MON g__forcing_g_fv_del2         =   0.0000000000000E+00
(PID.TID 0000.0001) %MON g__g_vcfl_g_uvel_max         =   1.0316933524245E-03
(PID.TID 0000.0001) %MON g__g_vcfl_g_vvel_max         =   2.0322034588998E-04
(PID.TID 0000.0001) %MON g__g_vcfl_g_wvel_max         =   0.0000000000000E+00
(PID.TID 0000.0001) %MON g__g_vcfl_g_W_hf_max         =   0.0000000000000E+00
(PID.TID 0000.0001) // =======================================================
(PID.TID 0000.0001) // End MONITOR dynamic field statistics
(PID.TID 0000.0001) // =======================================================
 myIter=            5
(PID.TID 0000.0001) // Model state written, timestep         5
(PID.TID 0000.0001) 
 cg2d: Sum(rhs),rhsMax =  -1.00000000000000E+00  2.65074809348743E-05
 cg2d: Sum(rhs),rhsMax =   1.00000000000000E+00  2.45952871586638E-05
(PID.TID 0000.0001) // =======================================================
(PID.TID 0000.0001) // Begin MONITOR dynamic field statistics
(PID.TID 0000.0001) // =======================================================
(PID.TID 0000.0001) %MON g__time_tsnumber             =                     6
(PID.TID 0000.0001) %MON g__time_secondsf             =   2.1600000000000E+04
(PID.TID 0000.0001) %MON g__dynstat_g_eta_max         =   7.0529510581544E-03
(PID.TID 0000.0001) %MON g__dynstat_g_eta_min         =   7.0529510581544E-03
(PID.TID 0000.0001) %MON g__dynstat_g_eta_mean        =   7.0529510581544E-03
(PID.TID 0000.0001) %MON g__dynstat_g_eta_sd          =   0.0000000000000E+00
(PID.TID 0000.0001) %MON g__dynstat_g_eta_del2        =   0.0000000000000E+00
(PID.TID 0000.0001) %MON g__dynstat_g_uvel_max        =   1.7614238175054E-03
(PID.TID 0000.0001) %MON g__dynstat_g_uvel_min        =  -1.1148439805320E-03
(PID.TID 0000.0001) %MON g__dynstat_g_uvel_mean       =   1.3811250422495E-07
(PID.TID 0000.0001) %MON g__dynstat_g_uvel_sd         =   3.0900354561393E-04
(PID.TID 0000.0001) %MON g__dynstat_g_uvel_del2       =   0.0000000000000E+00
(PID.TID 0000.0001) %MON g__dynstat_g_vvel_max        =   7.7120898582561E-04
(PID.TID 0000.0001) %MON g__dynstat_g_vvel_min        =  -4.7455497844951E-04
(PID.TID 0000.0001) %MON g__dynstat_g_vvel_mean       =   6.3157718605797E-09
(PID.TID 0000.0001) %MON g__dynstat_g_vvel_sd         =   1.3036603234071E-04
(PID.TID 0000.0001) %MON g__dynstat_g_vvel_del2       =   0.0000000000000E+00
(PID.TID 0000.0001) %MON g__dynstat_g_wvel_max        =   0.0000000000000E+00
(PID.TID 0000.0001) %MON g__dynstat_g_wvel_min        =   0.0000000000000E+00
(PID.TID 0000.0001) %MON g__dynstat_g_wvel_mean       =   0.0000000000000E+00
(PID.TID 0000.0001) %MON g__dynstat_g_wvel_sd         =   0.0000000000000E+00
(PID.TID 0000.0001) %MON g__dynstat_g_wvel_del2       =   0.0000000000000E+00
(PID.TID 0000.0001) %MON g__dynstat_g_theta_max       =   1.0093602801572E+00
(PID.TID 0000.0001) %MON g__dynstat_g_theta_min       =  -5.8108781445790E-02
(PID.TID 0000.0001) %MON g__dynstat_g_theta_mean      =   1.8326246795780E-02
(PID.TID 0000.0001) %MON g__dynstat_g_theta_sd        =   1.3994479374704E-01
(PID.TID 0000.0001) %MON g__dynstat_g_theta_del2      =   0.0000000000000E+00
(PID.TID 0000.0001) %MON g__dynstat_g_salt_max        =   2.4404064914616E-02
(PID.TID 0000.0001) %MON g__dynstat_g_salt_min        =  -1.8337393107646E-02
(PID.TID 0000.0001) %MON g__dynstat_g_salt_mean       =  -2.7905520420139E-04
(PID.TID 0000.0001) %MON g__dynstat_g_salt_sd         =   4.7098754374375E-03
(PID.TID 0000.0001) %MON g__dynstat_g_salt_del2       =   0.0000000000000E+00
(PID.TID 0000.0001) %MON g__dynstat_g_sst_max         =   4.4802346339666E-03
(PID.TID 0000.0001) %MON g__dynstat_g_sst_min         =   4.4802346339666E-03
(PID.TID 0000.0001) %MON g__dynstat_g_sst_mean        =   4.4802346339666E-03
(PID.TID 0000.0001) %MON g__dynstat_g_sst_sd          =   0.0000000000000E+00
(PID.TID 0000.0001) %MON g__dynstat_g_sst_del2        =   0.0000000000000E+00
(PID.TID 0000.0001) %MON g__dynstat_g_sss_max         =  -8.9961596469763E-03
(PID.TID 0000.0001) %MON g__dynstat_g_sss_min         =  -8.9961596469763E-03
(PID.TID 0000.0001) %MON g__dynstat_g_sss_mean        =  -8.9961596469763E-03
(PID.TID 0000.0001) %MON g__dynstat_g_sss_sd          =   0.0000000000000E+00
(PID.TID 0000.0001) %MON g__dynstat_g_sss_del2        =   0.0000000000000E+00
(PID.TID 0000.0001) %MON g__forcing_g_qnet_max        =   1.0555944193282E+02
(PID.TID 0000.0001) %MON g__forcing_g_qnet_min        =   1.0555944193282E+02
(PID.TID 0000.0001) %MON g__forcing_g_qnet_mean       =   1.0555944193282E+02
(PID.TID 0000.0001) %MON g__forcing_g_qnet_sd         =   0.0000000000000E+00
(PID.TID 0000.0001) %MON g__forcing_g_qnet_del2       =   0.0000000000000E+00
(PID.TID 0000.0001) %MON g__forcing_g_qsw_max         =  -8.1873856847821E-03
(PID.TID 0000.0001) %MON g__forcing_g_qsw_min         =  -8.1873856847821E-03
(PID.TID 0000.0001) %MON g__forcing_g_qsw_mean        =  -8.1873856847821E-03
(PID.TID 0000.0001) %MON g__forcing_g_qsw_sd          =   0.0000000000000E+00
(PID.TID 0000.0001) %MON g__forcing_g_qsw_del2        =   0.0000000000000E+00
(PID.TID 0000.0001) %MON g__forcing_g_empmr_max       =  -3.1407454096795E-04
(PID.TID 0000.0001) %MON g__forcing_g_empmr_min       =  -3.1407454096795E-04
(PID.TID 0000.0001) %MON g__forcing_g_empmr_mean      =  -3.1407454096795E-04
(PID.TID 0000.0001) %MON g__forcing_g_empmr_sd        =   0.0000000000000E+00
(PID.TID 0000.0001) %MON g__forcing_g_empmr_del2      =   0.0000000000000E+00
(PID.TID 0000.0001) %MON g__forcing_g_fu_max          =   3.7491850097453E-06
(PID.TID 0000.0001) %MON g__forcing_g_fu_min          =   3.7491850097453E-06
(PID.TID 0000.0001) %MON g__forcing_g_fu_mean         =   3.7491850097453E-06
(PID.TID 0000.0001) %MON g__forcing_g_fu_sd           =   0.0000000000000E+00
(PID.TID 0000.0001) %MON g__forcing_g_fu_del2         =   0.0000000000000E+00
(PID.TID 0000.0001) %MON g__forcing_g_fv_max          =   3.7491850097453E-06
(PID.TID 0000.0001) %MON g__forcing_g_fv_min          =   3.7491850097453E-06
(PID.TID 0000.0001) %MON g__forcing_g_fv_mean         =   3.7491850097453E-06
(PID.TID 0000.0001) %MON g__forcing_g_fv_sd           =   0.0000000000000E+00
(PID.TID 0000.0001) %MON g__forcing_g_fv_del2         =   0.0000000000000E+00
(PID.TID 0000.0001) %MON g__g_vcfl_g_uvel_max         =   1.2682251486039E-03
(PID.TID 0000.0001) %MON g__g_vcfl_g_vvel_max         =   5.5527046979444E-04
(PID.TID 0000.0001) %MON g__g_vcfl_g_wvel_max         =   0.0000000000000E+00
(PID.TID 0000.0001) %MON g__g_vcfl_g_W_hf_max         =   0.0000000000000E+00
(PID.TID 0000.0001) // =======================================================
(PID.TID 0000.0001) // End MONITOR dynamic field statistics
(PID.TID 0000.0001) // =======================================================
 myIter=            6
(PID.TID 0000.0001) // Model state written, timestep         6
(PID.TID 0000.0001) 
 cg2d: Sum(rhs),rhsMax =  -1.00000000000000E+00  2.71120720454058E-05
 cg2d: Sum(rhs),rhsMax =   1.00000000000000E+00  2.65835287231568E-05
(PID.TID 0000.0001) // =======================================================
(PID.TID 0000.0001) // Begin MONITOR dynamic field statistics
(PID.TID 0000.0001) // =======================================================
(PID.TID 0000.0001) %MON g__time_tsnumber             =                     7
(PID.TID 0000.0001) %MON g__time_secondsf             =   2.5200000000000E+04
(PID.TID 0000.0001) %MON g__dynstat_g_eta_max         =   7.2138170236223E-03
(PID.TID 0000.0001) %MON g__dynstat_g_eta_min         =   7.2138170236223E-03
(PID.TID 0000.0001) %MON g__dynstat_g_eta_mean        =   7.2138170236223E-03
(PID.TID 0000.0001) %MON g__dynstat_g_eta_sd          =   0.0000000000000E+00
(PID.TID 0000.0001) %MON g__dynstat_g_eta_del2        =   0.0000000000000E+00
(PID.TID 0000.0001) %MON g__dynstat_g_uvel_max        =   1.3957489483514E-03
(PID.TID 0000.0001) %MON g__dynstat_g_uvel_min        =  -9.8641827879238E-04
(PID.TID 0000.0001) %MON g__dynstat_g_uvel_mean       =   1.5841641073400E-07
(PID.TID 0000.0001) %MON g__dynstat_g_uvel_sd         =   2.5203696805220E-04
(PID.TID 0000.0001) %MON g__dynstat_g_uvel_del2       =   0.0000000000000E+00
(PID.TID 0000.0001) %MON g__dynstat_g_vvel_max        =   1.3094605845692E-03
(PID.TID 0000.0001) %MON g__dynstat_g_vvel_min        =  -7.2112739039123E-04
(PID.TID 0000.0001) %MON g__dynstat_g_vvel_mean       =  -2.8753236539475E-08
(PID.TID 0000.0001) %MON g__dynstat_g_vvel_sd         =   2.2449020532707E-04
(PID.TID 0000.0001) %MON g__dynstat_g_vvel_del2       =   0.0000000000000E+00
(PID.TID 0000.0001) %MON g__dynstat_g_wvel_max        =   0.0000000000000E+00
(PID.TID 0000.0001) %MON g__dynstat_g_wvel_min        =   0.0000000000000E+00
(PID.TID 0000.0001) %MON g__dynstat_g_wvel_mean       =   0.0000000000000E+00
(PID.TID 0000.0001) %MON g__dynstat_g_wvel_sd         =   0.0000000000000E+00
(PID.TID 0000.0001) %MON g__dynstat_g_wvel_del2       =   0.0000000000000E+00
(PID.TID 0000.0001) %MON g__dynstat_g_theta_max       =   1.0369323575725E+00
(PID.TID 0000.0001) %MON g__dynstat_g_theta_min       =  -5.6403480406760E-02
(PID.TID 0000.0001) %MON g__dynstat_g_theta_mean      =   1.8299361895727E-02
(PID.TID 0000.0001) %MON g__dynstat_g_theta_sd        =   1.4385829429463E-01
(PID.TID 0000.0001) %MON g__dynstat_g_theta_del2      =   0.0000000000000E+00
(PID.TID 0000.0001) %MON g__dynstat_g_salt_max        =   2.9435878196545E-02
(PID.TID 0000.0001) %MON g__dynstat_g_salt_min        =  -1.8950524305469E-02
(PID.TID 0000.0001) %MON g__dynstat_g_salt_mean       =  -2.8542709388252E-04
(PID.TID 0000.0001) %MON g__dynstat_g_salt_sd         =   5.4766874214339E-03
(PID.TID 0000.0001) %MON g__dynstat_g_salt_del2       =   0.0000000000000E+00
(PID.TID 0000.0001) %MON g__dynstat_g_sst_max         =  -1.2740613482768E-02
(PID.TID 0000.0001) %MON g__dynstat_g_sst_min         =  -1.2740613482768E-02
(PID.TID 0000.0001) %MON g__dynstat_g_sst_mean        =  -1.2740613482768E-02
(PID.TID 0000.0001) %MON g__dynstat_g_sst_sd          =   0.0000000000000E+00
(PID.TID 0000.0001) %MON g__dynstat_g_sst_del2        =   0.0000000000000E+00
(PID.TID 0000.0001) %MON g__dynstat_g_sss_max         =  -1.1525674112399E-02
(PID.TID 0000.0001) %MON g__dynstat_g_sss_min         =  -1.1525674112399E-02
(PID.TID 0000.0001) %MON g__dynstat_g_sss_mean        =  -1.1525674112399E-02
(PID.TID 0000.0001) %MON g__dynstat_g_sss_sd          =   1.7347234759768E-18
(PID.TID 0000.0001) %MON g__dynstat_g_sss_del2        =   0.0000000000000E+00
(PID.TID 0000.0001) %MON g__forcing_g_qnet_max        =   1.5691016644743E+01
(PID.TID 0000.0001) %MON g__forcing_g_qnet_min        =   1.5691016644743E+01
(PID.TID 0000.0001) %MON g__forcing_g_qnet_mean       =   1.5691016644743E+01
(PID.TID 0000.0001) %MON g__forcing_g_qnet_sd         =   0.0000000000000E+00
(PID.TID 0000.0001) %MON g__forcing_g_qnet_del2       =   0.0000000000000E+00
(PID.TID 0000.0001) %MON g__forcing_g_qsw_max         =  -1.1282763003647E-02
(PID.TID 0000.0001) %MON g__forcing_g_qsw_min         =  -1.1282763003647E-02
(PID.TID 0000.0001) %MON g__forcing_g_qsw_mean        =  -1.1282763003647E-02
(PID.TID 0000.0001) %MON g__forcing_g_qsw_sd          =   0.0000000000000E+00
(PID.TID 0000.0001) %MON g__forcing_g_qsw_del2        =   0.0000000000000E+00
(PID.TID 0000.0001) %MON g__forcing_g_empmr_max       =  -4.5891485147000E-05
(PID.TID 0000.0001) %MON g__forcing_g_empmr_min       =  -4.5891485147000E-05
(PID.TID 0000.0001) %MON g__forcing_g_empmr_mean      =  -4.5891485147000E-05
(PID.TID 0000.0001) %MON g__forcing_g_empmr_sd        =   0.0000000000000E+00
(PID.TID 0000.0001) %MON g__forcing_g_empmr_del2      =   0.0000000000000E+00
(PID.TID 0000.0001) %MON g__forcing_g_fu_max          =   3.4369029727183E-06
(PID.TID 0000.0001) %MON g__forcing_g_fu_min          =   3.4369029727183E-06
(PID.TID 0000.0001) %MON g__forcing_g_fu_mean         =   3.4369029727183E-06
(PID.TID 0000.0001) %MON g__forcing_g_fu_sd           =   0.0000000000000E+00
(PID.TID 0000.0001) %MON g__forcing_g_fu_del2         =   0.0000000000000E+00
(PID.TID 0000.0001) %MON g__forcing_g_fv_max          =   3.4369029727183E-06
(PID.TID 0000.0001) %MON g__forcing_g_fv_min          =   3.4369029727183E-06
(PID.TID 0000.0001) %MON g__forcing_g_fv_mean         =   3.4369029727183E-06
(PID.TID 0000.0001) %MON g__forcing_g_fv_sd           =   0.0000000000000E+00
(PID.TID 0000.0001) %MON g__forcing_g_fv_del2         =   0.0000000000000E+00
(PID.TID 0000.0001) %MON g__g_vcfl_g_uvel_max         =   1.0049392428130E-03
(PID.TID 0000.0001) %MON g__g_vcfl_g_vvel_max         =   9.4281162088983E-04
(PID.TID 0000.0001) %MON g__g_vcfl_g_wvel_max         =   0.0000000000000E+00
(PID.TID 0000.0001) %MON g__g_vcfl_g_W_hf_max         =   0.0000000000000E+00
(PID.TID 0000.0001) // =======================================================
(PID.TID 0000.0001) // End MONITOR dynamic field statistics
(PID.TID 0000.0001) // =======================================================
 myIter=            7
(PID.TID 0000.0001) // Model state written, timestep         7
(PID.TID 0000.0001) 
 cg2d: Sum(rhs),rhsMax =  -1.00000000000000E+00  2.53692990983370E-05
 cg2d: Sum(rhs),rhsMax =   1.00000000000000E+00  2.82563874062722E-05
(PID.TID 0000.0001) // =======================================================
(PID.TID 0000.0001) // Begin MONITOR dynamic field statistics
(PID.TID 0000.0001) // =======================================================
(PID.TID 0000.0001) %MON g__time_tsnumber             =                     8
(PID.TID 0000.0001) %MON g__time_secondsf             =   2.8800000000000E+04
(PID.TID 0000.0001) %MON g__dynstat_g_eta_max         =   6.7501104823848E-03
(PID.TID 0000.0001) %MON g__dynstat_g_eta_min         =   6.7501104823848E-03
(PID.TID 0000.0001) %MON g__dynstat_g_eta_mean        =   6.7501104823848E-03
(PID.TID 0000.0001) %MON g__dynstat_g_eta_sd          =   0.0000000000000E+00
(PID.TID 0000.0001) %MON g__dynstat_g_eta_del2        =   0.0000000000000E+00
(PID.TID 0000.0001) %MON g__dynstat_g_uvel_max        =   5.9182760581225E-04
(PID.TID 0000.0001) %MON g__dynstat_g_uvel_min        =  -6.3610317655292E-04
(PID.TID 0000.0001) %MON g__dynstat_g_uvel_mean       =   1.5680479179467E-07
(PID.TID 0000.0001) %MON g__dynstat_g_uvel_sd         =   1.2303257300816E-04
(PID.TID 0000.0001) %MON g__dynstat_g_uvel_del2       =   0.0000000000000E+00
(PID.TID 0000.0001) %MON g__dynstat_g_vvel_max        =   1.5955997492135E-03
(PID.TID 0000.0001) %MON g__dynstat_g_vvel_min        =  -1.0087153401354E-03
(PID.TID 0000.0001) %MON g__dynstat_g_vvel_mean       =  -7.3854336180382E-08
(PID.TID 0000.0001) %MON g__dynstat_g_vvel_sd         =   2.7657486164371E-04
(PID.TID 0000.0001) %MON g__dynstat_g_vvel_del2       =   0.0000000000000E+00
(PID.TID 0000.0001) %MON g__dynstat_g_wvel_max        =   0.0000000000000E+00
(PID.TID 0000.0001) %MON g__dynstat_g_wvel_min        =   0.0000000000000E+00
(PID.TID 0000.0001) %MON g__dynstat_g_wvel_mean       =   0.0000000000000E+00
(PID.TID 0000.0001) %MON g__dynstat_g_wvel_sd         =   0.0000000000000E+00
(PID.TID 0000.0001) %MON g__dynstat_g_wvel_del2       =   0.0000000000000E+00
(PID.TID 0000.0001) %MON g__dynstat_g_theta_max       =   1.0115547673079E+00
(PID.TID 0000.0001) %MON g__dynstat_g_theta_min       =  -2.6145616354550E-02
(PID.TID 0000.0001) %MON g__dynstat_g_theta_mean      =   1.8374787731557E-02
(PID.TID 0000.0001) %MON g__dynstat_g_theta_sd        =   1.4010613673954E-01
(PID.TID 0000.0001) %MON g__dynstat_g_theta_del2      =   0.0000000000000E+00
(PID.TID 0000.0001) %MON g__dynstat_g_salt_max        =   3.0008373303901E-02
(PID.TID 0000.0001) %MON g__dynstat_g_salt_min        =  -1.7058014981757E-02
(PID.TID 0000.0001) %MON g__dynstat_g_salt_mean       =  -2.6708361150819E-04
(PID.TID 0000.0001) %MON g__dynstat_g_salt_sd         =   5.4849777679795E-03
(PID.TID 0000.0001) %MON g__dynstat_g_salt_del2       =   0.0000000000000E+00
(PID.TID 0000.0001) %MON g__dynstat_g_sst_max         =  -1.7874079782488E-02
(PID.TID 0000.0001) %MON g__dynstat_g_sst_min         =  -1.7874079782488E-02
(PID.TID 0000.0001) %MON g__dynstat_g_sst_mean        =  -1.7874079782488E-02
(PID.TID 0000.0001) %MON g__dynstat_g_sst_sd          =   3.4694469519536E-18
(PID.TID 0000.0001) %MON g__dynstat_g_sst_del2        =   0.0000000000000E+00
(PID.TID 0000.0001) %MON g__dynstat_g_sss_max         =  -1.2632390285203E-02
(PID.TID 0000.0001) %MON g__dynstat_g_sss_min         =  -1.2632390285203E-02
(PID.TID 0000.0001) %MON g__dynstat_g_sss_mean        =  -1.2632390285203E-02
(PID.TID 0000.0001) %MON g__dynstat_g_sss_sd          =   0.0000000000000E+00
(PID.TID 0000.0001) %MON g__dynstat_g_sss_del2        =   0.0000000000000E+00
(PID.TID 0000.0001) %MON g__forcing_g_qnet_max        =  -4.4021292365929E+01
(PID.TID 0000.0001) %MON g__forcing_g_qnet_min        =  -4.4021292365929E+01
(PID.TID 0000.0001) %MON g__forcing_g_qnet_mean       =  -4.4021292365929E+01
(PID.TID 0000.0001) %MON g__forcing_g_qnet_sd         =   0.0000000000000E+00
(PID.TID 0000.0001) %MON g__forcing_g_qnet_del2       =   0.0000000000000E+00
(PID.TID 0000.0001) %MON g__forcing_g_qsw_max         =  -1.2002843020323E-02
(PID.TID 0000.0001) %MON g__forcing_g_qsw_min         =  -1.2002843020323E-02
(PID.TID 0000.0001) %MON g__forcing_g_qsw_mean        =  -1.2002843020323E-02
(PID.TID 0000.0001) %MON g__forcing_g_qsw_sd          =   0.0000000000000E+00
(PID.TID 0000.0001) %MON g__forcing_g_qsw_del2        =   0.0000000000000E+00
(PID.TID 0000.0001) %MON g__forcing_g_empmr_max       =   1.3228517162603E-04
(PID.TID 0000.0001) %MON g__forcing_g_empmr_min       =   1.3228517162603E-04
(PID.TID 0000.0001) %MON g__forcing_g_empmr_mean      =   1.3228517162603E-04
(PID.TID 0000.0001) %MON g__forcing_g_empmr_sd        =   0.0000000000000E+00
(PID.TID 0000.0001) %MON g__forcing_g_empmr_del2      =   0.0000000000000E+00
(PID.TID 0000.0001) %MON g__forcing_g_fu_max          =   2.7818319569675E-06
(PID.TID 0000.0001) %MON g__forcing_g_fu_min          =   2.7818319569675E-06
(PID.TID 0000.0001) %MON g__forcing_g_fu_mean         =   2.7818319569675E-06
(PID.TID 0000.0001) %MON g__forcing_g_fu_sd           =   0.0000000000000E+00
(PID.TID 0000.0001) %MON g__forcing_g_fu_del2         =   0.0000000000000E+00
(PID.TID 0000.0001) %MON g__forcing_g_fv_max          =   2.7818319569675E-06
(PID.TID 0000.0001) %MON g__forcing_g_fv_min          =   2.7818319569675E-06
(PID.TID 0000.0001) %MON g__forcing_g_fv_mean         =   2.7818319569675E-06
(PID.TID 0000.0001) %MON g__forcing_g_fv_sd           =   0.0000000000000E+00
(PID.TID 0000.0001) %MON g__forcing_g_fv_del2         =   0.0000000000000E+00
(PID.TID 0000.0001) %MON g__g_vcfl_g_uvel_max         =   4.5799428711810E-04
(PID.TID 0000.0001) %MON g__g_vcfl_g_vvel_max         =   1.1488318194337E-03
(PID.TID 0000.0001) %MON g__g_vcfl_g_wvel_max         =   0.0000000000000E+00
(PID.TID 0000.0001) %MON g__g_vcfl_g_W_hf_max         =   0.0000000000000E+00
(PID.TID 0000.0001) // =======================================================
(PID.TID 0000.0001) // End MONITOR dynamic field statistics
(PID.TID 0000.0001) // =======================================================
 myIter=            8
(PID.TID 0000.0001) // Model state written, timestep         8
(PID.TID 0000.0001) 
 cg2d: Sum(rhs),rhsMax =  -1.00000000000000E+00  2.29388501704709E-05
 cg2d: Sum(rhs),rhsMax =   1.00000000000000E+00  2.96382495632280E-05
(PID.TID 0000.0001) // =======================================================
(PID.TID 0000.0001) // Begin MONITOR dynamic field statistics
(PID.TID 0000.0001) // =======================================================
(PID.TID 0000.0001) %MON g__time_tsnumber             =                     9
(PID.TID 0000.0001) %MON g__time_secondsf             =   3.2400000000000E+04
(PID.TID 0000.0001) %MON g__dynstat_g_eta_max         =   6.1034312532441E-03
(PID.TID 0000.0001) %MON g__dynstat_g_eta_min         =   6.1034312532441E-03
(PID.TID 0000.0001) %MON g__dynstat_g_eta_mean        =   6.1034312532441E-03
(PID.TID 0000.0001) %MON g__dynstat_g_eta_sd          =   0.0000000000000E+00
(PID.TID 0000.0001) %MON g__dynstat_g_eta_del2        =   0.0000000000000E+00
(PID.TID 0000.0001) %MON g__dynstat_g_uvel_max        =   3.6572332231368E-04
(PID.TID 0000.0001) %MON g__dynstat_g_uvel_min        =  -4.1622134290832E-04
(PID.TID 0000.0001) %MON g__dynstat_g_uvel_mean       =   1.3073656581259E-07
(PID.TID 0000.0001) %MON g__dynstat_g_uvel_sd         =   7.8292607040837E-05
(PID.TID 0000.0001) %MON g__dynstat_g_uvel_del2       =   0.0000000000000E+00
(PID.TID 0000.0001) %MON g__dynstat_g_vvel_max        =   2.0460178976933E-03
(PID.TID 0000.0001) %MON g__dynstat_g_vvel_min        =  -9.7136291926866E-04
(PID.TID 0000.0001) %MON g__dynstat_g_vvel_mean       =  -1.1969477897028E-07
(PID.TID 0000.0001) %MON g__dynstat_g_vvel_sd         =   3.3477195253825E-04
(PID.TID 0000.0001) %MON g__dynstat_g_vvel_del2       =   0.0000000000000E+00
(PID.TID 0000.0001) %MON g__dynstat_g_wvel_max        =   0.0000000000000E+00
(PID.TID 0000.0001) %MON g__dynstat_g_wvel_min        =   0.0000000000000E+00
(PID.TID 0000.0001) %MON g__dynstat_g_wvel_mean       =   0.0000000000000E+00
(PID.TID 0000.0001) %MON g__dynstat_g_wvel_sd         =   0.0000000000000E+00
(PID.TID 0000.0001) %MON g__dynstat_g_wvel_del2       =   0.0000000000000E+00
(PID.TID 0000.0001) %MON g__dynstat_g_theta_max       =   1.0411474513964E+00
(PID.TID 0000.0001) %MON g__dynstat_g_theta_min       =  -4.0295467895485E-02
(PID.TID 0000.0001) %MON g__dynstat_g_theta_mean      =   1.8480187938844E-02
(PID.TID 0000.0001) %MON g__dynstat_g_theta_sd        =   1.4435044857329E-01
(PID.TID 0000.0001) %MON g__dynstat_g_theta_del2      =   0.0000000000000E+00
(PID.TID 0000.0001) %MON g__dynstat_g_salt_max        =   3.5706768767299E-02
(PID.TID 0000.0001) %MON g__dynstat_g_salt_min        =  -1.9238007679677E-02
(PID.TID 0000.0001) %MON g__dynstat_g_salt_mean       =  -2.4149793721239E-04
(PID.TID 0000.0001) %MON g__dynstat_g_salt_sd         =   6.3349356071508E-03
(PID.TID 0000.0001) %MON g__dynstat_g_salt_del2       =   0.0000000000000E+00
(PID.TID 0000.0001) %MON g__dynstat_g_sst_max         =  -2.2475469155170E-02
(PID.TID 0000.0001) %MON g__dynstat_g_sst_min         =  -2.2475469155170E-02
(PID.TID 0000.0001) %MON g__dynstat_g_sst_mean        =  -2.2475469155170E-02
(PID.TID 0000.0001) %MON g__dynstat_g_sst_sd          =   3.4694469519536E-18
(PID.TID 0000.0001) %MON g__dynstat_g_sst_del2        =   0.0000000000000E+00
(PID.TID 0000.0001) %MON g__dynstat_g_sss_max         =  -1.3681899768228E-02
(PID.TID 0000.0001) %MON g__dynstat_g_sss_min         =  -1.3681899768228E-02
(PID.TID 0000.0001) %MON g__dynstat_g_sss_mean        =  -1.3681899768228E-02
(PID.TID 0000.0001) %MON g__dynstat_g_sss_sd          =   1.7347234759768E-18
(PID.TID 0000.0001) %MON g__dynstat_g_sss_del2        =   0.0000000000000E+00
(PID.TID 0000.0001) %MON g__forcing_g_qnet_max        =  -6.1515438169666E+01
(PID.TID 0000.0001) %MON g__forcing_g_qnet_min        =  -6.1515438169666E+01
(PID.TID 0000.0001) %MON g__forcing_g_qnet_mean       =  -6.1515438169666E+01
(PID.TID 0000.0001) %MON g__forcing_g_qnet_sd         =   0.0000000000000E+00
(PID.TID 0000.0001) %MON g__forcing_g_qnet_del2       =   0.0000000000000E+00
(PID.TID 0000.0001) %MON g__forcing_g_qsw_max         =  -1.0428677733653E-02
(PID.TID 0000.0001) %MON g__forcing_g_qsw_min         =  -1.0428677733653E-02
(PID.TID 0000.0001) %MON g__forcing_g_qsw_mean        =  -1.0428677733653E-02
(PID.TID 0000.0001) %MON g__forcing_g_qsw_sd          =   0.0000000000000E+00
(PID.TID 0000.0001) %MON g__forcing_g_qsw_del2        =   0.0000000000000E+00
(PID.TID 0000.0001) %MON g__forcing_g_empmr_max       =   1.8448321342654E-04
(PID.TID 0000.0001) %MON g__forcing_g_empmr_min       =   1.8448321342654E-04
(PID.TID 0000.0001) %MON g__forcing_g_empmr_mean      =   1.8448321342654E-04
(PID.TID 0000.0001) %MON g__forcing_g_empmr_sd        =   0.0000000000000E+00
(PID.TID 0000.0001) %MON g__forcing_g_empmr_del2      =   0.0000000000000E+00
(PID.TID 0000.0001) %MON g__forcing_g_fu_max          =   1.9822232625951E-06
(PID.TID 0000.0001) %MON g__forcing_g_fu_min          =   1.9822232625951E-06
(PID.TID 0000.0001) %MON g__forcing_g_fu_mean         =   1.9822232625951E-06
(PID.TID 0000.0001) %MON g__forcing_g_fu_sd           =   0.0000000000000E+00
(PID.TID 0000.0001) %MON g__forcing_g_fu_del2         =   0.0000000000000E+00
(PID.TID 0000.0001) %MON g__forcing_g_fv_max          =   1.9822232625951E-06
(PID.TID 0000.0001) %MON g__forcing_g_fv_min          =   1.9822232625951E-06
(PID.TID 0000.0001) %MON g__forcing_g_fv_mean         =   1.9822232625951E-06
(PID.TID 0000.0001) %MON g__forcing_g_fv_sd           =   0.0000000000000E+00
(PID.TID 0000.0001) %MON g__forcing_g_fv_del2         =   0.0000000000000E+00
(PID.TID 0000.0001) %MON g__g_vcfl_g_uvel_max         =   2.9967936689399E-04
(PID.TID 0000.0001) %MON g__g_vcfl_g_vvel_max         =   1.4731328863392E-03
(PID.TID 0000.0001) %MON g__g_vcfl_g_wvel_max         =   0.0000000000000E+00
(PID.TID 0000.0001) %MON g__g_vcfl_g_W_hf_max         =   0.0000000000000E+00
(PID.TID 0000.0001) // =======================================================
(PID.TID 0000.0001) // End MONITOR dynamic field statistics
(PID.TID 0000.0001) // =======================================================
 myIter=            9
(PID.TID 0000.0001) // Model state written, timestep         9
(PID.TID 0000.0001) 
 cg2d: Sum(rhs),rhsMax =  -1.00000000000000E+00  1.98993824095530E-05
 cg2d: Sum(rhs),rhsMax =   1.00000000000000E+00  3.06558785220526E-05
(PID.TID 0000.0001) // =======================================================
(PID.TID 0000.0001) // Begin MONITOR dynamic field statistics
(PID.TID 0000.0001) // =======================================================
(PID.TID 0000.0001) %MON g__time_tsnumber             =                    10
(PID.TID 0000.0001) %MON g__time_secondsf             =   3.6000000000000E+04
(PID.TID 0000.0001) %MON g__dynstat_g_eta_max         =   5.2947079568491E-03
(PID.TID 0000.0001) %MON g__dynstat_g_eta_min         =   5.2947079568491E-03
(PID.TID 0000.0001) %MON g__dynstat_g_eta_mean        =   5.2947079568491E-03
(PID.TID 0000.0001) %MON g__dynstat_g_eta_sd          =   0.0000000000000E+00
(PID.TID 0000.0001) %MON g__dynstat_g_eta_del2        =   0.0000000000000E+00
(PID.TID 0000.0001) %MON g__dynstat_g_uvel_max        =   1.0684255749474E-02
(PID.TID 0000.0001) %MON g__dynstat_g_uvel_min        =  -9.1467585024723E-03
(PID.TID 0000.0001) %MON g__dynstat_g_uvel_mean       =   7.9450162461181E-08
(PID.TID 0000.0001) %MON g__dynstat_g_uvel_sd         =   2.0072580465545E-03
(PID.TID 0000.0001) %MON g__dynstat_g_uvel_del2       =   0.0000000000000E+00
(PID.TID 0000.0001) %MON g__dynstat_g_vvel_max        =   4.5082459409401E-03
(PID.TID 0000.0001) %MON g__dynstat_g_vvel_min        =  -4.2193640057797E-03
(PID.TID 0000.0001) %MON g__dynstat_g_vvel_mean       =  -1.5942395313028E-07
(PID.TID 0000.0001) %MON g__dynstat_g_vvel_sd         =   9.4557365748485E-04
(PID.TID 0000.0001) %MON g__dynstat_g_vvel_del2       =   0.0000000000000E+00
(PID.TID 0000.0001) %MON g__dynstat_g_wvel_max        =   0.0000000000000E+00
(PID.TID 0000.0001) %MON g__dynstat_g_wvel_min        =   0.0000000000000E+00
(PID.TID 0000.0001) %MON g__dynstat_g_wvel_mean       =   0.0000000000000E+00
(PID.TID 0000.0001) %MON g__dynstat_g_wvel_sd         =   0.0000000000000E+00
(PID.TID 0000.0001) %MON g__dynstat_g_wvel_del2       =   0.0000000000000E+00
(PID.TID 0000.0001) %MON g__dynstat_g_theta_max       =   1.0411341199022E+00
(PID.TID 0000.0001) %MON g__dynstat_g_theta_min       =  -4.5855876720771E-01
(PID.TID 0000.0001) %MON g__dynstat_g_theta_mean      =   1.8612173204141E-02
(PID.TID 0000.0001) %MON g__dynstat_g_theta_sd        =   1.6294823294211E-01
(PID.TID 0000.0001) %MON g__dynstat_g_theta_del2      =   0.0000000000000E+00
(PID.TID 0000.0001) %MON g__dynstat_g_salt_max        =   3.5706238839093E-02
(PID.TID 0000.0001) %MON g__dynstat_g_salt_min        =  -2.9411742032428E-02
(PID.TID 0000.0001) %MON g__dynstat_g_salt_mean       =  -2.0949726562977E-04
(PID.TID 0000.0001) %MON g__dynstat_g_salt_sd         =   6.6704739243669E-03
(PID.TID 0000.0001) %MON g__dynstat_g_salt_del2       =   0.0000000000000E+00
(PID.TID 0000.0001) %MON g__dynstat_g_sst_max         =   9.4357042210207E-02
(PID.TID 0000.0001) %MON g__dynstat_g_sst_min         =   9.4357042210207E-02
(PID.TID 0000.0001) %MON g__dynstat_g_sst_mean        =   9.4357042210207E-02
(PID.TID 0000.0001) %MON g__dynstat_g_sst_sd          =   0.0000000000000E+00
(PID.TID 0000.0001) %MON g__dynstat_g_sst_del2        =   0.0000000000000E+00
(PID.TID 0000.0001) %MON g__dynstat_g_sss_max         =  -9.1210339324732E-03
(PID.TID 0000.0001) %MON g__dynstat_g_sss_min         =  -9.1210339324732E-03
(PID.TID 0000.0001) %MON g__dynstat_g_sss_mean        =  -9.1210339324732E-03
(PID.TID 0000.0001) %MON g__dynstat_g_sss_sd          =   0.0000000000000E+00
(PID.TID 0000.0001) %MON g__dynstat_g_sss_del2        =   0.0000000000000E+00
(PID.TID 0000.0001) %MON g__forcing_g_qnet_max        =  -7.7031455968124E+01
(PID.TID 0000.0001) %MON g__forcing_g_qnet_min        =  -7.7031455968124E+01
(PID.TID 0000.0001) %MON g__forcing_g_qnet_mean       =  -7.7031455968124E+01
(PID.TID 0000.0001) %MON g__forcing_g_qnet_sd         =   0.0000000000000E+00
(PID.TID 0000.0001) %MON g__forcing_g_qnet_del2       =   0.0000000000000E+00
(PID.TID 0000.0001) %MON g__forcing_g_qsw_max         =  -7.7833831039303E-03
(PID.TID 0000.0001) %MON g__forcing_g_qsw_min         =  -7.7833831039303E-03
(PID.TID 0000.0001) %MON g__forcing_g_qsw_mean        =  -7.7833831039303E-03
(PID.TID 0000.0001) %MON g__forcing_g_qsw_sd          =   0.0000000000000E+00
(PID.TID 0000.0001) %MON g__forcing_g_qsw_del2        =   0.0000000000000E+00
(PID.TID 0000.0001) %MON g__forcing_g_empmr_max       =   2.3071078483262E-04
(PID.TID 0000.0001) %MON g__forcing_g_empmr_min       =   2.3071078483262E-04
(PID.TID 0000.0001) %MON g__forcing_g_empmr_mean      =   2.3071078483262E-04
(PID.TID 0000.0001) %MON g__forcing_g_empmr_sd        =   0.0000000000000E+00
(PID.TID 0000.0001) %MON g__forcing_g_empmr_del2      =   0.0000000000000E+00
(PID.TID 0000.0001) %MON g__forcing_g_fu_max          =   8.9938744527291E-07
(PID.TID 0000.0001) %MON g__forcing_g_fu_min          =   8.9938744527291E-07
(PID.TID 0000.0001) %MON g__forcing_g_fu_mean         =   8.9938744527291E-07
(PID.TID 0000.0001) %MON g__forcing_g_fu_sd           =   1.0587911840679E-22
(PID.TID 0000.0001) %MON g__forcing_g_fu_del2         =   0.0000000000000E+00
(PID.TID 0000.0001) %MON g__forcing_g_fv_max          =   8.9938744527291E-07
(PID.TID 0000.0001) %MON g__forcing_g_fv_min          =   8.9938744527291E-07
(PID.TID 0000.0001) %MON g__forcing_g_fv_mean         =   8.9938744527291E-07
(PID.TID 0000.0001) %MON g__forcing_g_fv_sd           =   1.0587911840679E-22
(PID.TID 0000.0001) %MON g__forcing_g_fv_del2         =   0.0000000000000E+00
(PID.TID 0000.0001) %MON g__g_vcfl_g_uvel_max         =   7.6926641396211E-03
(PID.TID 0000.0001) %MON g__g_vcfl_g_vvel_max         =   3.2459370774769E-03
(PID.TID 0000.0001) %MON g__g_vcfl_g_wvel_max         =   0.0000000000000E+00
(PID.TID 0000.0001) %MON g__g_vcfl_g_W_hf_max         =   0.0000000000000E+00
(PID.TID 0000.0001) // =======================================================
(PID.TID 0000.0001) // End MONITOR dynamic field statistics
(PID.TID 0000.0001) // =======================================================
(PID.TID 0000.0001) Did not write pickup because writePickupAtEnd = FALSE
(PID.TID 0000.0001) 
(PID.TID 0000.0001)  cal_TimeStamp: iter =          0 time =  0.00000000E+00
(PID.TID 0000.0001)                 date =   19790101           0
(PID.TID 0000.0001) 
(PID.TID 0000.0001) INI_CG2D: CG2D normalisation factor =  1.9483302809492266E-03
(PID.TID 0000.0001) 
(PID.TID 0000.0001) Start initial hydrostatic pressure computation
(PID.TID 0000.0001) Pressure is predetermined for buoyancyRelation OCEANIC
(PID.TID 0000.0001) 
(PID.TID 0000.0001) // =======================================================
(PID.TID 0000.0001) // Model current state
(PID.TID 0000.0001) // =======================================================
(PID.TID 0000.0001) 
 ph-ice B            0  -1.9299999999999999       3.19162471080251071E-003  1.59581235540125536E-003
 ph-ice C            0   7978.8401425578732     
(PID.TID 0000.0001) SOLVE_FOR_PRESSURE: putPmEinXvector =    F
 cg2d: Sum(rhs),rhsMax =   1.00000000000000E+00  5.58645366562891E-06
 ph-ice B            1  -1.9277414164446949       8.88744644658653535E-003  3.09504212935682050E-003
 ph-ice C            1   30196.839092386719     
 cg2d: Sum(rhs),rhsMax =   1.00000000000000E+00  1.08504363568823E-05
 ph-ice B            2  -1.9227439668983073       1.45024480560707984E-002  4.38366231419351233E-003
 ph-ice C            2   66451.952146090014     
 cg2d: Sum(rhs),rhsMax =   1.00000000000000E+00  1.54115948690814E-05
 ph-ice B            3  -1.9169503500250098       2.00243196433362372E-002  5.43052829283249307E-003
 ph-ice C            3   116511.36071530369     
 cg2d: Sum(rhs),rhsMax =   1.00000000000000E+00  1.91662500565038E-05
 ph-ice B            4  -1.9115570277465077       2.54432300772565526E-002  6.25461639898653929E-003
 ph-ice C            4   180117.66906654643     
 cg2d: Sum(rhs),rhsMax =   1.00000000000000E+00  2.21776121427959E-05
 ph-ice B            5  -1.9071999627229483       3.07544745187368317E-002  6.90084865382072435E-003
 ph-ice C            5   257001.71969531549     
 cg2d: Sum(rhs),rhsMax =   1.00000000000000E+00  2.45952845077596E-05
 ph-ice B            6  -1.9040029487221548       3.59579707355648162E-002  7.41854817327849796E-003
 ph-ice C            6   346894.14952228789     
 cg2d: Sum(rhs),rhsMax =   1.00000000000000E+00  2.65835260117920E-05
 ph-ice B            7  -1.9016149235920203       4.10551563270108444E-002  7.84195827368921149E-003
 ph-ice C            7   449529.18936648598     
 cg2d: Sum(rhs),rhsMax =   1.00000000000000E+00  2.82563848692401E-05
 ph-ice B            8  -1.8993859282514161       4.60449292123234905E-002  8.17839414980225249E-003
 ph-ice C            8   564638.31492158491     
 cg2d: Sum(rhs),rhsMax =   1.00000000000000E+00  2.96382472691873E-05
 ph-ice B            9  -1.8965938834144511       5.09203566192123133E-002  8.40585178805588681E-003
 ph-ice C            9   691935.67043196270     
 cg2d: Sum(rhs),rhsMax =   1.00000000000000E+00  3.06558765318026E-05
(PID.TID 0000.0001) Did not write pickup because writePickupAtEnd = FALSE
(PID.TID 0000.0001) ph-cost call cost_theta0
(PID.TID 0000.0001) ph-cost call cost_salt0
(PID.TID 0000.0001) ph-cost call cost_theta
(PID.TID 0000.0001) ph-cost call cost_salt
(PID.TID 0000.0001) ph-cost call cost_smrarea
  SICD cost smrarea/sst/sss    0.0000000000000000        0.0000000000000000        0.0000000000000000     
  SICD num points smrarea/sst/sss    0.0000000000000000        0.0000000000000000        0.0000000000000000     
 --> f_ice     = 0.691935670431963D+06
 --> f_smrarea = 0.000000000000000D+00
 --> f_smrarea = 0.000000000000000D+00
 --> f_smrarea = 0.000000000000000D+00
 --> f_temp    = 0.205317663110086D-01
 --> f_salt    = 0.270385529396999D-02
 --> f_temp0   = 0.945531200184689D-14
 --> f_salt0   = 0.000000000000000D+00
 --> f_temp0smoo = 0.000000000000000D+00
 --> f_salt0smoo = 0.000000000000000D+00
 --> f_etan0   = 0.000000000000000D+00
 --> f_uvel0   = 0.000000000000000D+00
 --> f_vvel0   = 0.000000000000000D+00
 --> f_sst     = 0.000000000000000D+00
 --> f_tmi     = 0.000000000000000D+00
 --> f_sss     = 0.000000000000000D+00
 --> f_bp      = 0.000000000000000D+00
 --> f_ies      = 0.000000000000000D+00
 --> f_ssh       = 0.000000000000000D+00
 --> f_tp        = 0.000000000000000D+00
 --> f_ers       = 0.000000000000000D+00
 --> f_gfo       = 0.000000000000000D+00
 --> f_tauu    = 0.000000000000000D+00
 --> f_tauum   = 0.000000000000000D+00
 --> f_tauusmoo = 0.000000000000000D+00
 --> f_tauv    = 0.000000000000000D+00
 --> f_tauvm   = 0.000000000000000D+00
 --> f_tauvsmoo = 0.000000000000000D+00
 --> f_hflux   = 0.000000000000000D+00
 --> f_hfluxmm = 0.000000000000000D+00
 --> f_hfluxsmoo = 0.000000000000000D+00
 --> f_sflux   = 0.000000000000000D+00
 --> f_sfluxmm = 0.000000000000000D+00
 --> f_sfluxsmoo = 0.000000000000000D+00
 --> f_uwind     = 0.000000000000000D+00
 --> f_vwind     = 0.000000000000000D+00
 --> f_atemp     = 0.000000000000000D+00
 --> f_aqh     = 0.000000000000000D+00
 --> f_precip  = 0.000000000000000D+00
 --> f_swflux  = 0.000000000000000D+00
 --> f_swdown  = 0.000000000000000D+00
 --> f_uwindm     = 0.000000000000000D+00
 --> f_vwindm     = 0.000000000000000D+00
 --> f_atempm     = 0.000000000000000D+00
 --> f_aqhm     = 0.000000000000000D+00
 --> f_precipm  = 0.000000000000000D+00
 --> f_swfluxm  = 0.000000000000000D+00
 --> f_swdownm  = 0.000000000000000D+00
 --> f_uwindsmoo     = 0.000000000000000D+00
 --> f_vwindsmoo     = 0.000000000000000D+00
 --> f_atempsmoo     = 0.000000000000000D+00
 --> f_aqhsmoo     = 0.000000000000000D+00
 --> f_precipsmoo  = 0.000000000000000D+00
 --> f_swfluxsmoo  = 0.000000000000000D+00
 --> f_swdownsmoo  = 0.000000000000000D+00
 --> f_atl     = 0.000000000000000D+00
 --> f_ctdt    = 0.000000000000000D+00
 --> f_ctds    = 0.000000000000000D+00
 --> f_ctdtclim= 0.000000000000000D+00
 --> f_ctdsclim= 0.000000000000000D+00
 --> f_xbt     = 0.000000000000000D+00
 --> f_argot   = 0.000000000000000D+00
 --> f_argos   = 0.000000000000000D+00
 --> f_drifter   = 0.000000000000000D+00
 --> f_tdrift  = 0.000000000000000D+00
 --> f_sdrift  = 0.000000000000000D+00
 --> f_wdrift  = 0.000000000000000D+00
 --> f_scatx   = 0.000000000000000D+00
 --> f_scaty   = 0.000000000000000D+00
 --> f_scatxm  = 0.000000000000000D+00
 --> f_scatym  = 0.000000000000000D+00
 --> f_obcsn   = 0.000000000000000D+00
 --> f_obcss   = 0.000000000000000D+00
 --> f_obcsw   = 0.000000000000000D+00
 --> f_obcse   = 0.000000000000000D+00
 --> f_ageos   = 0.000000000000000D+00
 --> f_curmtr  = 0.000000000000000D+00
 --> f_kapgm   = 0.000000000000000D+00
 --> f_kapredi   = 0.000000000000000D+00
 --> f_diffkr  = 0.000000000000000D+00
 --> f_eddytau = 0.000000000000000D+00
 --> f_bottomdrag = 0.000000000000000D+00
 --> f_hfluxmm2           = 0.000000000000000D+00
 --> f_sfluxmm2           = 0.000000000000000D+00
 --> f_transp             = 0.000000000000000D+00
 --> objf_hmean           = 0.000000000000000D+00
 --> fc               = 0.691935670431963D+06
 ph-check fcpertplus =    691935.67043196270     
 ph-check fcpertminus =    691935.67110343161     
(PID.TID 0000.0001) 
(PID.TID 0000.0001)  cal_TimeStamp: iter =          0 time =  0.00000000E+00
(PID.TID 0000.0001)                 date =   19790101           0
(PID.TID 0000.0001) 
(PID.TID 0000.0001) INI_CG2D: CG2D normalisation factor =  1.9483302809492266E-03
(PID.TID 0000.0001) 
(PID.TID 0000.0001) Start initial hydrostatic pressure computation
(PID.TID 0000.0001) Pressure is predetermined for buoyancyRelation OCEANIC
(PID.TID 0000.0001) 
(PID.TID 0000.0001) // =======================================================
(PID.TID 0000.0001) // Model current state
(PID.TID 0000.0001) // =======================================================
(PID.TID 0000.0001) 
 ph-ice B            0  -1.9299999999999999       3.19162471080251071E-003  1.59581235540125536E-003
 ph-ice C            0   7978.8401425578732     
(PID.TID 0000.0001) SOLVE_FOR_PRESSURE: putPmEinXvector =    F
 cg2d: Sum(rhs),rhsMax =   1.00000000000000E+00  5.58645366562891E-06
 ph-ice B            1  -1.9277414197685627       8.88744644764664395E-003  3.09504226936894089E-003
 ph-ice C            1   30196.839095036918     
 cg2d: Sum(rhs),rhsMax =   1.00000000000000E+00  1.08504368230758E-05
 ph-ice B            2  -1.9227439747600830       1.45024480690297778E-002  4.38366278362199800E-003
 ph-ice C            2   66451.952181136745     
 cg2d: Sum(rhs),rhsMax =   1.00000000000000E+00  1.54115964321312E-05
 ph-ice B            3  -1.9169503608554472       2.00243196851621549E-002  5.43052921366403603E-003
 ph-ice C            3   116511.36085491232     
 cg2d: Sum(rhs),rhsMax =   1.00000000000000E+00  1.91662531225653E-05
 ph-ice B            4  -1.9115570379484903       2.54432301574321271E-002  6.25461774273295724E-003
 ph-ice C            4   180117.66940658842     
 cg2d: Sum(rhs),rhsMax =   1.00000000000000E+00  2.21776166169988E-05
 ph-ice B            5  -1.9071999687544563       3.07544746274600322E-002  6.90085024611462611E-003
 ph-ice C            5   257001.72030715796     
 cg2d: Sum(rhs),rhsMax =   1.00000000000000E+00  2.45952898094996E-05
 ph-ice B            6  -1.9040029496175896       3.59579708481892538E-002  7.41854980187165065E-003
 ph-ice C            6   346894.15041568363     
 cg2d: Sum(rhs),rhsMax =   1.00000000000000E+00  2.65835314343750E-05
 ph-ice B            7  -1.9016149210441200       4.10551564203440952E-002  7.84195979761919022E-003
 ph-ice C            7   449529.19049320836     
 cg2d: Sum(rhs),rhsMax =   1.00000000000000E+00  2.82563899432685E-05
 ph-ice B            8  -1.8993859246767957       4.60449292759784468E-002  8.17839552776035428E-003
 ph-ice C            8   564638.31620744022     
 cg2d: Sum(rhs),rhsMax =   1.00000000000000E+00  2.96382518571715E-05
 ph-ice B            9  -1.8965938789197634       5.09203566420134354E-002  8.40585298346678556E-003
 ph-ice C            9   691935.67177481914     
 cg2d: Sum(rhs),rhsMax =   1.00000000000000E+00  3.06558805119333E-05
(PID.TID 0000.0001) Did not write pickup because writePickupAtEnd = FALSE
(PID.TID 0000.0001) ph-cost call cost_theta0
(PID.TID 0000.0001) ph-cost call cost_salt0
(PID.TID 0000.0001) ph-cost call cost_theta
(PID.TID 0000.0001) ph-cost call cost_salt
(PID.TID 0000.0001) ph-cost call cost_smrarea
  SICD cost smrarea/sst/sss    0.0000000000000000        0.0000000000000000        0.0000000000000000     
  SICD num points smrarea/sst/sss    0.0000000000000000        0.0000000000000000        0.0000000000000000     
 --> f_ice     = 0.691935671774819D+06
 --> f_smrarea = 0.000000000000000D+00
 --> f_smrarea = 0.000000000000000D+00
 --> f_smrarea = 0.000000000000000D+00
 --> f_temp    = 0.205318183691430D-01
 --> f_salt    = 0.270385627966109D-02
 --> f_temp0   = 0.945531200184689D-14
 --> f_salt0   = 0.000000000000000D+00
 --> f_temp0smoo = 0.000000000000000D+00
 --> f_salt0smoo = 0.000000000000000D+00
 --> f_etan0   = 0.000000000000000D+00
 --> f_uvel0   = 0.000000000000000D+00
 --> f_vvel0   = 0.000000000000000D+00
 --> f_sst     = 0.000000000000000D+00
 --> f_tmi     = 0.000000000000000D+00
 --> f_sss     = 0.000000000000000D+00
 --> f_bp      = 0.000000000000000D+00
 --> f_ies      = 0.000000000000000D+00
 --> f_ssh       = 0.000000000000000D+00
 --> f_tp        = 0.000000000000000D+00
 --> f_ers       = 0.000000000000000D+00
 --> f_gfo       = 0.000000000000000D+00
 --> f_tauu    = 0.000000000000000D+00
 --> f_tauum   = 0.000000000000000D+00
 --> f_tauusmoo = 0.000000000000000D+00
 --> f_tauv    = 0.000000000000000D+00
 --> f_tauvm   = 0.000000000000000D+00
 --> f_tauvsmoo = 0.000000000000000D+00
 --> f_hflux   = 0.000000000000000D+00
 --> f_hfluxmm = 0.000000000000000D+00
 --> f_hfluxsmoo = 0.000000000000000D+00
 --> f_sflux   = 0.000000000000000D+00
 --> f_sfluxmm = 0.000000000000000D+00
 --> f_sfluxsmoo = 0.000000000000000D+00
 --> f_uwind     = 0.000000000000000D+00
 --> f_vwind     = 0.000000000000000D+00
 --> f_atemp     = 0.000000000000000D+00
 --> f_aqh     = 0.000000000000000D+00
 --> f_precip  = 0.000000000000000D+00
 --> f_swflux  = 0.000000000000000D+00
 --> f_swdown  = 0.000000000000000D+00
 --> f_uwindm     = 0.000000000000000D+00
 --> f_vwindm     = 0.000000000000000D+00
 --> f_atempm     = 0.000000000000000D+00
 --> f_aqhm     = 0.000000000000000D+00
 --> f_precipm  = 0.000000000000000D+00
 --> f_swfluxm  = 0.000000000000000D+00
 --> f_swdownm  = 0.000000000000000D+00
 --> f_uwindsmoo     = 0.000000000000000D+00
 --> f_vwindsmoo     = 0.000000000000000D+00
 --> f_atempsmoo     = 0.000000000000000D+00
 --> f_aqhsmoo     = 0.000000000000000D+00
 --> f_precipsmoo  = 0.000000000000000D+00
 --> f_swfluxsmoo  = 0.000000000000000D+00
 --> f_swdownsmoo  = 0.000000000000000D+00
 --> f_atl     = 0.000000000000000D+00
 --> f_ctdt    = 0.000000000000000D+00
 --> f_ctds    = 0.000000000000000D+00
 --> f_ctdtclim= 0.000000000000000D+00
 --> f_ctdsclim= 0.000000000000000D+00
 --> f_xbt     = 0.000000000000000D+00
 --> f_argot   = 0.000000000000000D+00
 --> f_argos   = 0.000000000000000D+00
 --> f_drifter   = 0.000000000000000D+00
 --> f_tdrift  = 0.000000000000000D+00
 --> f_sdrift  = 0.000000000000000D+00
 --> f_wdrift  = 0.000000000000000D+00
 --> f_scatx   = 0.000000000000000D+00
 --> f_scaty   = 0.000000000000000D+00
 --> f_scatxm  = 0.000000000000000D+00
 --> f_scatym  = 0.000000000000000D+00
 --> f_obcsn   = 0.000000000000000D+00
 --> f_obcss   = 0.000000000000000D+00
 --> f_obcsw   = 0.000000000000000D+00
 --> f_obcse   = 0.000000000000000D+00
 --> f_ageos   = 0.000000000000000D+00
 --> f_curmtr  = 0.000000000000000D+00
 --> f_kapgm   = 0.000000000000000D+00
 --> f_kapredi   = 0.000000000000000D+00
 --> f_diffkr  = 0.000000000000000D+00
 --> f_eddytau = 0.000000000000000D+00
 --> f_bottomdrag = 0.000000000000000D+00
 --> f_hfluxmm2           = 0.000000000000000D+00
 --> f_sfluxmm2           = 0.000000000000000D+00
 --> f_transp             = 0.000000000000000D+00
 --> objf_hmean           = 0.000000000000000D+00
 --> fc               = 0.691935671774819D+06
grad-res -------------------------------
 grad-res     0    4    1    1    4    1    1    1   6.91935671103E+05  6.91935670432E+05  6.91935671775E+05
 grad-res     0    4    4    4    0    1    1    1  -6.71389209561E+03 -6.71428220812E+03 -5.81052696771E-05
(PID.TID 0000.0001)   TLM  precision_derivative_cost =    6.91935671103432E+05
(PID.TID 0000.0001)   TLM  precision_derivative_grad =   -6.71389209561151E+03
 ph-grd  ierr ---------------------------
 ph-grd  ierr =            0 , icomp =            4 , ichknum =            4
(PID.TID 0000.0001) 
(PID.TID 0000.0001) // =======================================================
(PID.TID 0000.0001) // Gradient check results  >>> START <<<
(PID.TID 0000.0001) // =======================================================
(PID.TID 0000.0001) 
(PID.TID 0000.0001)  EPS =   1.000000E-07
(PID.TID 0000.0001) 
(PID.TID 0000.0001) grdchk output h.p:  Id Itile Jtile LAYER   bi   bj   X(Id)           X(Id)+/-EPS
(PID.TID 0000.0001) grdchk output h.c:  Id  FC                   FC1                  FC2
(PID.TID 0000.0001) grdchk output h.g:  Id     FC1-FC2/(2*EPS)      TLM GRAD(FC)        1-FDGRD/TLMGRD
(PID.TID 0000.0001) 
(PID.TID 0000.0001) grdchk output (p):   1     1     1     1    1    1   0.000000000E+00 -1.000000000E-07
(PID.TID 0000.0001) grdchk output (c):   1  6.9193567110343E+05  6.9193548197623E+05  6.9193586023046E+05
(PID.TID 0000.0001) grdchk output (g):   1    -1.8912711762823E+06 -1.8912711858098E+06  5.0376012250553E-09
(PID.TID 0000.0001) 
(PID.TID 0000.0001) grdchk output (p):   2     1     1     2    1    1   0.000000000E+00 -1.000000000E-07
(PID.TID 0000.0001) grdchk output (c):   2  6.9193567110343E+05  6.9193567510465E+05  6.9193566710221E+05
(PID.TID 0000.0001) grdchk output (g):   2     4.0012168465182E+04  4.0012040598975E+04 -3.1956932249333E-06
(PID.TID 0000.0001) 
(PID.TID 0000.0001) grdchk output (p):   3     1     1     3    1    1   0.000000000E+00 -1.000000000E-07
(PID.TID 0000.0001) grdchk output (c):   3  6.9193567110343E+05  6.9193567370304E+05  6.9193566850383E+05
(PID.TID 0000.0001) grdchk output (g):   3     2.5996047770604E+04  2.5996176938336E+04  4.9687202773319E-06
(PID.TID 0000.0001) 
(PID.TID 0000.0001) grdchk output (p):   4     1     1     4    1    1   0.000000000E+00 -1.000000000E-07
(PID.TID 0000.0001) grdchk output (c):   4  6.9193567110343E+05  6.9193567043196E+05  6.9193567177482E+05
(PID.TID 0000.0001) grdchk output (g):   4    -6.7142822081223E+03 -6.7138920956115E+03 -5.8105269677089E-05
(PID.TID 0000.0001) 
(PID.TID 0000.0001) grdchk  summary  :  RMS of    4 ratios =  2.9202410114607E-05
(PID.TID 0000.0001) 
(PID.TID 0000.0001) // =======================================================
(PID.TID 0000.0001) // Gradient check results  >>> END <<<
(PID.TID 0000.0001) // =======================================================
(PID.TID 0000.0001) 
(PID.TID 0000.0001)   Seconds in section "ALL                    [THE_MODEL_MAIN]":
(PID.TID 0000.0001)           User time:   2.1299999999999999
(PID.TID 0000.0001)         System time:  0.13000000000000000
(PID.TID 0000.0001)     Wall clock time:   2.2612352371215820
(PID.TID 0000.0001)          No. starts:           1
(PID.TID 0000.0001)           No. stops:           1
(PID.TID 0000.0001)   Seconds in section "INITIALISE_FIXED       [THE_MODEL_MAIN]":
(PID.TID 0000.0001)           User time:  0.13000000000000000
(PID.TID 0000.0001)         System time:  1.00000000000000002E-002
(PID.TID 0000.0001)     Wall clock time:  0.14621615409851074
(PID.TID 0000.0001)          No. starts:           1
(PID.TID 0000.0001)           No. stops:           1
(PID.TID 0000.0001)   Seconds in section "G_THE_MAIN_LOOP           [TANGENT RUN]":
(PID.TID 0000.0001)           User time:  0.22999999999999998
(PID.TID 0000.0001)         System time:  2.99999999999999989E-002
(PID.TID 0000.0001)     Wall clock time:  0.26611399650573730
(PID.TID 0000.0001)          No. starts:           1
(PID.TID 0000.0001)           No. stops:           1
(PID.TID 0000.0001)   Seconds in section "I/O (WRITE)        [TLM LOOP]":
(PID.TID 0000.0001)           User time:  5.00000000000000444E-002
(PID.TID 0000.0001)         System time:  2.00000000000000178E-002
(PID.TID 0000.0001)     Wall clock time:  6.48744106292724609E-002
(PID.TID 0000.0001)          No. starts:         150
(PID.TID 0000.0001)           No. stops:         150
(PID.TID 0000.0001)   Seconds in section "I/O (WRITE)        [ADJOINT LOOP]":
(PID.TID 0000.0001)           User time:  1.99999999999995737E-002
(PID.TID 0000.0001)         System time:  4.00000000000000355E-002
(PID.TID 0000.0001)     Wall clock time:  5.70297241210937500E-002
(PID.TID 0000.0001)          No. starts:         370
(PID.TID 0000.0001)           No. stops:         370
(PID.TID 0000.0001)   Seconds in section "CTRL_PACK           [THE_MODEL_MAIN]":
(PID.TID 0000.0001)           User time:   0.0000000000000000
(PID.TID 0000.0001)         System time:   0.0000000000000000
(PID.TID 0000.0001)     Wall clock time:  2.38895416259765625E-003
(PID.TID 0000.0001)          No. starts:           1
(PID.TID 0000.0001)           No. stops:           1
(PID.TID 0000.0001)   Seconds in section "GRDCHK_MAIN         [THE_MODEL_MAIN]":
(PID.TID 0000.0001)           User time:   1.7700000000000000
(PID.TID 0000.0001)         System time:  8.99999999999999967E-002
(PID.TID 0000.0001)     Wall clock time:   1.8464260101318359
(PID.TID 0000.0001)          No. starts:           1
(PID.TID 0000.0001)           No. stops:           1
(PID.TID 0000.0001)   Seconds in section "ECCO SPIN-UP":
(PID.TID 0000.0001)           User time:  9.99999999999978684E-003
(PID.TID 0000.0001)         System time:   0.0000000000000000
(PID.TID 0000.0001)     Wall clock time:  1.49633884429931641E-002
(PID.TID 0000.0001)          No. starts:           8
(PID.TID 0000.0001)           No. stops:           8
(PID.TID 0000.0001)   Seconds in section "INITIALISE_VARIA    [THE_MAIN_LOOP]":
(PID.TID 0000.0001)           User time:  9.99999999999978684E-003
(PID.TID 0000.0001)         System time:   0.0000000000000000
(PID.TID 0000.0001)     Wall clock time:  1.43680572509765625E-002
(PID.TID 0000.0001)          No. starts:           8
(PID.TID 0000.0001)           No. stops:           8
(PID.TID 0000.0001)   Seconds in section "ECCO MAIN LOOP":
(PID.TID 0000.0001)           User time:  0.76999999999999957
(PID.TID 0000.0001)         System time:  1.00000000000000089E-002
(PID.TID 0000.0001)     Wall clock time:  0.78959679603576660
(PID.TID 0000.0001)          No. starts:           8
(PID.TID 0000.0001)           No. stops:           8
(PID.TID 0000.0001)   Seconds in section "COST_AVERAGESFIELDS   [ECCO MAIN]":
(PID.TID 0000.0001)           User time:   0.0000000000000000
(PID.TID 0000.0001)         System time:   0.0000000000000000
(PID.TID 0000.0001)     Wall clock time:  1.80864334106445313E-003
(PID.TID 0000.0001)          No. starts:          80
(PID.TID 0000.0001)           No. stops:          80
(PID.TID 0000.0001)   Seconds in section "LOAD_FIELDS_DRIVER  [FORWARD_STEP]":
(PID.TID 0000.0001)           User time:  2.99999999999993605E-002
(PID.TID 0000.0001)         System time:   0.0000000000000000
(PID.TID 0000.0001)     Wall clock time:  4.16643619537353516E-002
(PID.TID 0000.0001)          No. starts:          80
(PID.TID 0000.0001)           No. stops:          80
(PID.TID 0000.0001)   Seconds in section "EXF_GETFORCING     [LOAD_FLDS_DRIVER]":
(PID.TID 0000.0001)           User time:  2.99999999999993605E-002
(PID.TID 0000.0001)         System time:   0.0000000000000000
(PID.TID 0000.0001)     Wall clock time:  3.91418933868408203E-002
(PID.TID 0000.0001)          No. starts:          80
(PID.TID 0000.0001)           No. stops:          80
(PID.TID 0000.0001)   Seconds in section "DO_ATMOSPHERIC_PHYS [FORWARD_STEP]":
(PID.TID 0000.0001)           User time:   0.0000000000000000
(PID.TID 0000.0001)         System time:   0.0000000000000000
(PID.TID 0000.0001)     Wall clock time:  1.25098228454589844E-003
(PID.TID 0000.0001)          No. starts:          80
(PID.TID 0000.0001)           No. stops:          80
(PID.TID 0000.0001)   Seconds in section "DO_OCEANIC_PHYS     [FORWARD_STEP]":
(PID.TID 0000.0001)           User time:  0.26999999999999957
(PID.TID 0000.0001)         System time:   0.0000000000000000
(PID.TID 0000.0001)     Wall clock time:  0.29127311706542969
(PID.TID 0000.0001)          No. starts:          80
(PID.TID 0000.0001)           No. stops:          80
(PID.TID 0000.0001)   Seconds in section "SEAICE_MODEL    [DO_OCEANIC_PHYS]":
(PID.TID 0000.0001)           User time:  1.99999999999995737E-002
(PID.TID 0000.0001)         System time:   0.0000000000000000
(PID.TID 0000.0001)     Wall clock time:  1.85663700103759766E-002
(PID.TID 0000.0001)          No. starts:          80
(PID.TID 0000.0001)           No. stops:          80
(PID.TID 0000.0001)   Seconds in section "SEAICE_DYNSOLVER   [SEAICE_MODEL]":
(PID.TID 0000.0001)           User time:  9.99999999999978684E-003
(PID.TID 0000.0001)         System time:   0.0000000000000000
(PID.TID 0000.0001)     Wall clock time:  4.69398498535156250E-003
(PID.TID 0000.0001)          No. starts:          80
(PID.TID 0000.0001)           No. stops:          80
(PID.TID 0000.0001)   Seconds in section "KPP_CALC [DO_OCEANIC_PHYS]":
(PID.TID 0000.0001)           User time:  0.21999999999999931
(PID.TID 0000.0001)         System time:   0.0000000000000000
(PID.TID 0000.0001)     Wall clock time:  0.23794007301330566
(PID.TID 0000.0001)          No. starts:          80
(PID.TID 0000.0001)           No. stops:          80
(PID.TID 0000.0001)   Seconds in section "DYNAMICS            [FORWARD_STEP]":
(PID.TID 0000.0001)           User time:  0.20999999999999863
(PID.TID 0000.0001)         System time:   0.0000000000000000
(PID.TID 0000.0001)     Wall clock time:  0.18967103958129883
(PID.TID 0000.0001)          No. starts:          80
(PID.TID 0000.0001)           No. stops:          80
(PID.TID 0000.0001)   Seconds in section "SOLVE_FOR_PRESSURE  [FORWARD_STEP]":
(PID.TID 0000.0001)           User time:   0.0000000000000000
(PID.TID 0000.0001)         System time:   0.0000000000000000
(PID.TID 0000.0001)     Wall clock time:  5.97143173217773438E-003
(PID.TID 0000.0001)          No. starts:          80
(PID.TID 0000.0001)           No. stops:          80
(PID.TID 0000.0001)   Seconds in section "MOM_CORRECTION_STEP [FORWARD_STEP]":
(PID.TID 0000.0001)           User time:   0.0000000000000000
(PID.TID 0000.0001)         System time:   0.0000000000000000
(PID.TID 0000.0001)     Wall clock time:  6.93297386169433594E-003
(PID.TID 0000.0001)          No. starts:          80
(PID.TID 0000.0001)           No. stops:          80
(PID.TID 0000.0001)   Seconds in section "INTEGR_CONTINUITY   [FORWARD_STEP]":
(PID.TID 0000.0001)           User time:   0.0000000000000000
(PID.TID 0000.0001)         System time:   0.0000000000000000
(PID.TID 0000.0001)     Wall clock time:  2.31599807739257813E-003
(PID.TID 0000.0001)          No. starts:          80
(PID.TID 0000.0001)           No. stops:          80
(PID.TID 0000.0001)   Seconds in section "BLOCKING_EXCHANGES  [FORWARD_STEP]":
(PID.TID 0000.0001)           User time:  4.99999999999993783E-002
(PID.TID 0000.0001)         System time:   0.0000000000000000
(PID.TID 0000.0001)     Wall clock time:  3.10387611389160156E-002
(PID.TID 0000.0001)          No. starts:         160
(PID.TID 0000.0001)           No. stops:         160
(PID.TID 0000.0001)   Seconds in section "THERMODYNAMICS      [FORWARD_STEP]":
(PID.TID 0000.0001)           User time:  0.14999999999999858
(PID.TID 0000.0001)         System time:  1.00000000000000089E-002
(PID.TID 0000.0001)     Wall clock time:  0.15938949584960938
(PID.TID 0000.0001)          No. starts:          80
(PID.TID 0000.0001)           No. stops:          80
(PID.TID 0000.0001)   Seconds in section "TS_CORRECTION_STEP  [FORWARD_STEP]":
(PID.TID 0000.0001)           User time:   0.0000000000000000
(PID.TID 0000.0001)         System time:   0.0000000000000000
(PID.TID 0000.0001)     Wall clock time:  4.71568107604980469E-003
(PID.TID 0000.0001)          No. starts:          80
(PID.TID 0000.0001)           No. stops:          80
(PID.TID 0000.0001)   Seconds in section "MONITOR             [FORWARD_STEP]":
(PID.TID 0000.0001)           User time:  1.99999999999995737E-002
(PID.TID 0000.0001)         System time:   0.0000000000000000
(PID.TID 0000.0001)     Wall clock time:  1.33402347564697266E-002
(PID.TID 0000.0001)          No. starts:          80
(PID.TID 0000.0001)           No. stops:          80
(PID.TID 0000.0001)   Seconds in section "DO_THE_MODEL_IO     [FORWARD_STEP]":
(PID.TID 0000.0001)           User time:  9.99999999999978684E-003
(PID.TID 0000.0001)         System time:   0.0000000000000000
(PID.TID 0000.0001)     Wall clock time:  7.72905349731445313E-003
(PID.TID 0000.0001)          No. starts:          80
(PID.TID 0000.0001)           No. stops:          80
(PID.TID 0000.0001)   Seconds in section "DO_WRITE_PICKUP     [FORWARD_STEP]":
(PID.TID 0000.0001)           User time:   0.0000000000000000
(PID.TID 0000.0001)         System time:   0.0000000000000000
(PID.TID 0000.0001)     Wall clock time:  2.05802917480468750E-003
(PID.TID 0000.0001)          No. starts:          80
(PID.TID 0000.0001)           No. stops:          80
(PID.TID 0000.0001)   Seconds in section "ECCO SPIN-DOWN":
(PID.TID 0000.0001)           User time:  2.00000000000000178E-002
(PID.TID 0000.0001)         System time:  3.00000000000000266E-002
(PID.TID 0000.0001)     Wall clock time:  3.16460132598876953E-002
(PID.TID 0000.0001)          No. starts:           8
(PID.TID 0000.0001)           No. stops:           8
(PID.TID 0000.0001)   Seconds in section "COST_AVERAGESFIELDS [ECCO SPIN-DOWN]":
(PID.TID 0000.0001)           User time:   0.0000000000000000
(PID.TID 0000.0001)         System time:   0.0000000000000000
(PID.TID 0000.0001)     Wall clock time:  4.62985038757324219E-003
(PID.TID 0000.0001)          No. starts:           8
(PID.TID 0000.0001)           No. stops:           8
(PID.TID 0000.0001)   Seconds in section "COST_FORCING       [ECCO SPIN-DOWN]":
(PID.TID 0000.0001)           User time:   0.0000000000000000
(PID.TID 0000.0001)         System time:  2.00000000000000178E-002
(PID.TID 0000.0001)     Wall clock time:  1.28290653228759766E-002
(PID.TID 0000.0001)          No. starts:           8
(PID.TID 0000.0001)           No. stops:           8
(PID.TID 0000.0001)   Seconds in section "COST_HYD           [ECCO SPIN-DOWN]":
(PID.TID 0000.0001)           User time:   0.0000000000000000
(PID.TID 0000.0001)         System time:  1.00000000000000089E-002
(PID.TID 0000.0001)     Wall clock time:  4.56094741821289063E-003
(PID.TID 0000.0001)          No. starts:           8
(PID.TID 0000.0001)           No. stops:           8
(PID.TID 0000.0001)   Seconds in section "SEAICE_COST_DRIVER [ECCO SPIN-DOWN]":
(PID.TID 0000.0001)           User time:   0.0000000000000000
(PID.TID 0000.0001)         System time:   0.0000000000000000
(PID.TID 0000.0001)     Wall clock time:  6.53266906738281250E-004
(PID.TID 0000.0001)          No. starts:           8
(PID.TID 0000.0001)           No. stops:           8
(PID.TID 0000.0001)   Seconds in section "COST_INTERNAL_PARAMS  [ECCO SPIN-DOWN]":
(PID.TID 0000.0001)           User time:   0.0000000000000000
(PID.TID 0000.0001)         System time:   0.0000000000000000
(PID.TID 0000.0001)     Wall clock time:  1.30891799926757813E-004
(PID.TID 0000.0001)          No. starts:           8
(PID.TID 0000.0001)           No. stops:           8
(PID.TID 0000.0001)   Seconds in section "COST_GENCOST_ALL    [ECCO SPIN-DOWN]":
(PID.TID 0000.0001)           User time:   0.0000000000000000
(PID.TID 0000.0001)         System time:   0.0000000000000000
(PID.TID 0000.0001)     Wall clock time:  1.22785568237304688E-004
(PID.TID 0000.0001)          No. starts:           8
(PID.TID 0000.0001)           No. stops:           8
(PID.TID 0000.0001)   Seconds in section "COST_USERCOST_ALL    [ECCO SPIN-DOWN]":
(PID.TID 0000.0001)           User time:   0.0000000000000000
(PID.TID 0000.0001)         System time:   0.0000000000000000
(PID.TID 0000.0001)     Wall clock time:  1.25885009765625000E-004
(PID.TID 0000.0001)          No. starts:           8
(PID.TID 0000.0001)           No. stops:           8
(PID.TID 0000.0001)   Seconds in section "COST_FINAL         [ECCO SPIN-DOWN]":
(PID.TID 0000.0001)           User time:  2.00000000000000178E-002
(PID.TID 0000.0001)         System time:   0.0000000000000000
(PID.TID 0000.0001)     Wall clock time:  7.44581222534179688E-003
(PID.TID 0000.0001)          No. starts:           8
(PID.TID 0000.0001)           No. stops:           8
(PID.TID 0000.0001) // ======================================================
(PID.TID 0000.0001) // Tile <-> Tile communication statistics
(PID.TID 0000.0001) // ======================================================
(PID.TID 0000.0001) // o Tile number: 000001
(PID.TID 0000.0001) //         No. X exchanges =              0
(PID.TID 0000.0001) //            Max. X spins =              0
(PID.TID 0000.0001) //            Min. X spins =     1000000000
(PID.TID 0000.0001) //          Total. X spins =              0
(PID.TID 0000.0001) //            Avg. X spins =       0.00E+00
(PID.TID 0000.0001) //         No. Y exchanges =              0
(PID.TID 0000.0001) //            Max. Y spins =              0
(PID.TID 0000.0001) //            Min. Y spins =     1000000000
(PID.TID 0000.0001) //          Total. Y spins =              0
(PID.TID 0000.0001) //            Avg. Y spins =       0.00E+00
(PID.TID 0000.0001) // o Thread number: 000001
(PID.TID 0000.0001) //            No. barriers =          26208
(PID.TID 0000.0001) //      Max. barrier spins =              1
(PID.TID 0000.0001) //      Min. barrier spins =              1
(PID.TID 0000.0001) //     Total barrier spins =          26208
(PID.TID 0000.0001) //      Avg. barrier spins =       1.00E+00
PROGRAM MAIN: Execution ended Normally
