(PID.TID 0000.0001) 
(PID.TID 0000.0001) // ======================================================
(PID.TID 0000.0001) //                      MITgcm UV
(PID.TID 0000.0001) //                      =========
(PID.TID 0000.0001) // ======================================================
(PID.TID 0000.0001) // execution environment starting up...
(PID.TID 0000.0001) // Run starting Wed Apr  1 14:19:48 1998
(PID.TID 0000.0001) // on melville.lcs.mit.edu
(PID.TID 0000.0001) // account cnh
(PID.TID 0000.0001) // MITgcm UV Release: $Name:  $
(PID.TID 0000.0001) 
(PID.TID 0000.0001) // =======================================================
(PID.TID 0000.0001) // Execution Environment parameter file "eedata"
(PID.TID 0000.0001) // =======================================================
(PID.TID 0000.0001) ># Example "eedata" file
(PID.TID 0000.0001) ># Lines beginning "#" are comments
(PID.TID 0000.0001) ># nTx - No. threads per process in X
(PID.TID 0000.0001) ># nTy - No. threads per process in Y
(PID.TID 0000.0001) > &EEPARMS
(PID.TID 0000.0001) > nTx=1,nTy=1
(PID.TID 0000.0001) > &
(PID.TID 0000.0001) ># Note: Some systems use & as the
(PID.TID 0000.0001) ># namelist terminator. Other systems
(PID.TID 0000.0001) ># use a / character (as shown here).
(PID.TID 0000.0001) 
(PID.TID 0000.0001) // =======================================================
(PID.TID 0000.0001) // Computational Grid Specification ( see files "SIZE.h" )
(PID.TID 0000.0001) //                                  ( and "eedata"       )
(PID.TID 0000.0001) // =======================================================
(PID.TID 0000.0001)      nPx =    1 ; /* No. processes in X */
(PID.TID 0000.0001)      nPy =    1 ; /* No. processes in Y */
(PID.TID 0000.0001)      nSx =    1 ; /* No. tiles in X per process */
(PID.TID 0000.0001)      nSy =    1 ; /* No. tiles in Y per process */
(PID.TID 0000.0001)      sNx =   90 ; /* Tile size in X */
(PID.TID 0000.0001)      sNy =   40 ; /* Tile size in Y */
(PID.TID 0000.0001)      OLx =    2 ; /* Tile overlap distance in X */
(PID.TID 0000.0001)      OLy =    2 ; /* Tile overlap distance in Y */
(PID.TID 0000.0001)      nTx =    1 ; /* No. threads in X per process */
(PID.TID 0000.0001)      nTy =    1 ; /* No. threads in Y per process */
(PID.TID 0000.0001)       Nr =   15 ; /* No. levels in the vertical   */
(PID.TID 0000.0001)       nX =   90 ; /* Total domain size in X ( = nPx*nSx*sNx ) */
(PID.TID 0000.0001)       nY =   40 ; /* Total domain size in Y ( = nPy*nSy*sNy ) */
(PID.TID 0000.0001)   nTiles =    1 ; /* Total no. tiles per process ( = nSx*nSy ) */
(PID.TID 0000.0001)   nProcs =    1 ; /* Total no. processes ( = nPx*nPy ) */
(PID.TID 0000.0001) nThreads =    1 ; /* Total no. threads per process ( = nTx*nTy ) */
(PID.TID 0000.0001) usingMPI =    F ; /* Flag used to control whether MPI is in use */
(PID.TID 0000.0001)                   /*  note: To execute a program with MPI calls */
(PID.TID 0000.0001)                   /*  it must be launched appropriately e.g     */
(PID.TID 0000.0001)                   /*  "mpirun -np 64 ......"                    */
(PID.TID 0000.0001) 
(PID.TID 0000.0001) // ======================================================
(PID.TID 0000.0001) // Mapping of tiles to threads
(PID.TID 0000.0001) // ======================================================
(PID.TID 0000.0001) // -o- Thread   1, tiles (   1:   1,   1:   1)
(PID.TID 0000.0001) 
(PID.TID 0000.0001) // ======================================================
(PID.TID 0000.0001) // Tile <-> Tile connectvity table
(PID.TID 0000.0001) // ======================================================
(PID.TID 0000.0001) // Tile number: 000001 (process no. = 000001)
(PID.TID 0000.0001) //        WEST: Tile = 000001, Process = 000001, Comm = put
(PID.TID 0000.0001) //                bi = 000001, bj = 000001
(PID.TID 0000.0001) //        EAST: Tile = 000001, Process = 000001, Comm = put
(PID.TID 0000.0001) //                bi = 000001, bj = 000001
(PID.TID 0000.0001) //       SOUTH: Tile = 000001, Process = 000001, Comm = put
(PID.TID 0000.0001) //                bi = 000001, bj = 000001
(PID.TID 0000.0001) //       NORTH: Tile = 000001, Process = 000001, Comm = put
(PID.TID 0000.0001) //                bi = 000001, bj = 000001
(PID.TID 0000.0001) 
(PID.TID 0000.0001) // =======================================================
(PID.TID 0000.0001) // Model parameter file "data"
(PID.TID 0000.0001) // =======================================================
(PID.TID 0000.0001) ># ====================
(PID.TID 0000.0001) ># | Model parameters |
(PID.TID 0000.0001) ># ====================
(PID.TID 0000.0001) >#
(PID.TID 0000.0001) ># Continuous equation parameters
(PID.TID 0000.0001) > &PARM01
(PID.TID 0000.0001) > tRef = 15*20.,
(PID.TID 0000.0001) > sRef = 15*35.,
(PID.TID 0000.0001) > viscAr=1.E-3,
(PID.TID 0000.0001) > viscAh=5.E5,
(PID.TID 0000.0001) > diffKhT=0.0,
(PID.TID 0000.0001) > diffKrT=3.E-5,
(PID.TID 0000.0001) > diffKhS=0.0,
(PID.TID 0000.0001) > diffKrS=3.E-5,
(PID.TID 0000.0001) > rhonil=1035.,
(PID.TID 0000.0001) > gravity=9.81,
(PID.TID 0000.0001) > eosType = 'POLY3',
(PID.TID 0000.0001) > ivdc_kappa=100.,
(PID.TID 0000.0001) > implicitDiffusion=.TRUE.,
(PID.TID 0000.0001) > allowFreezing=.TRUE.,
(PID.TID 0000.0001) > useRealFreshWaterFlux=.TRUE.,
(PID.TID 0000.0001) > useCDscheme=.TRUE.,
(PID.TID 0000.0001) > useNHMTerms=.TRUE.,
(PID.TID 0000.0001) ># turn on looped cells
(PID.TID 0000.0001) > hFacMin=.05,
(PID.TID 0000.0001) > hFacMindr=50.,
(PID.TID 0000.0001) ># set precision of data files
(PID.TID 0000.0001) > readBinaryPrec=32,
(PID.TID 0000.0001) > &
(PID.TID 0000.0001) >
(PID.TID 0000.0001) ># Elliptic solver parameters
(PID.TID 0000.0001) > &PARM02
(PID.TID 0000.0001) > cg2dMaxIters=500,
(PID.TID 0000.0001) > cg2dTargetResidual=1.E-13,
(PID.TID 0000.0001) > &
(PID.TID 0000.0001) >
(PID.TID 0000.0001) ># Time stepping parameters
(PID.TID 0000.0001) > &PARM03
(PID.TID 0000.0001) > nIter0 =      0,
(PID.TID 0000.0001) > nTimeSteps = 20,
(PID.TID 0000.0001) ># 100 years of integration will yield a reasonable flow field
(PID.TID 0000.0001) ># startTime  =          0.,
(PID.TID 0000.0001) ># endTime    = 3110400000.,
(PID.TID 0000.0001) > deltaTmom = 1200.0,
(PID.TID 0000.0001) > tauCD =     321428.,
(PID.TID 0000.0001) > deltaTtracer= 43200.0,
(PID.TID 0000.0001) > deltaTClock = 43200.0,
(PID.TID 0000.0001) ># if you are using a version later than checkpoint45d on the main branch
(PID.TID 0000.0001) ># you can uncomment the following line and increase the time step
(PID.TID 0000.0001) ># deltaTtracer and deltaTClock to 172800.0 as well to speed up the
(PID.TID 0000.0001) ># asynchronous time stepping
(PID.TID 0000.0001) ># deltaTfreesurf = 172800.0,
(PID.TID 0000.0001) > abEps = 0.1,
(PID.TID 0000.0001) > pChkptFreq= 311040000.,
(PID.TID 0000.0001) > dumpFreq=   311040000.,
(PID.TID 0000.0001) > dumpFreq=   864000.,
(PID.TID 0000.0001) > taveFreq=   311040000.,
(PID.TID 0000.0001) > taveFreq=   864000.,
(PID.TID 0000.0001) > monitorFreq=1.,
(PID.TID 0000.0001) ># 2 months restoring timescale for temperature
(PID.TID 0000.0001) > tauThetaClimRelax =  5184000.0,
(PID.TID 0000.0001) ># 6 months restoring timescale for salinity
(PID.TID 0000.0001) > tauSaltClimRelax = 15552000.0,
(PID.TID 0000.0001) > periodicExternalForcing=.TRUE.,
(PID.TID 0000.0001) > externForcingPeriod=2592000.,
(PID.TID 0000.0001) > externForcingCycle=31104000.,
(PID.TID 0000.0001) > &
(PID.TID 0000.0001) >
(PID.TID 0000.0001) ># Gridding parameters
(PID.TID 0000.0001) > &PARM04
(PID.TID 0000.0001) > usingCartesianGrid=.FALSE.,
(PID.TID 0000.0001) > usingSphericalPolarGrid=.TRUE.,
(PID.TID 0000.0001) > delR= 50., 70., 100., 140., 190.,
(PID.TID 0000.0001) >       240., 290., 340., 390., 440.,
(PID.TID 0000.0001) >       490., 540., 590., 640., 690.,
(PID.TID 0000.0001) > phiMin=-80.,
(PID.TID 0000.0001) > dySpacing=4.,
(PID.TID 0000.0001) > dxSpacing=4.,
(PID.TID 0000.0001) > &
(PID.TID 0000.0001) >
(PID.TID 0000.0001) ># Input datasets
(PID.TID 0000.0001) > &PARM05
(PID.TID 0000.0001) > bathyFile=      'bathymetry.bin',
(PID.TID 0000.0001) > hydrogThetaFile='lev_t.bin',
(PID.TID 0000.0001) > hydrogSaltFile= 'lev_s.bin',
(PID.TID 0000.0001) > &
(PID.TID 0000.0001) 
(PID.TID 0000.0001) S/R INI_PARMS ; read PARM01 : OK
(PID.TID 0000.0001) S/R INI_PARMS ; read PARM02 : OK
(PID.TID 0000.0001) S/R INI_PARMS ; read PARM03 : OK
(PID.TID 0000.0001) S/R INI_PARMS ; read PARM04 : OK
(PID.TID 0000.0001) S/R INI_PARMS ; read PARM05 : OK
(PID.TID 0000.0001) %MON XC_max                       =   3.5800000000000E+02
(PID.TID 0000.0001) %MON XC_min                       =   2.0000000000000E+00
(PID.TID 0000.0001) %MON XC_mean                      =   1.8000000000000E+02
(PID.TID 0000.0001) %MON XC_sd                        =   1.0391663325314E+02
(PID.TID 0000.0001) %MON XG_max                       =   3.5600000000000E+02
(PID.TID 0000.0001) %MON XG_min                       =   4.0000000000000E+00
(PID.TID 0000.0001) %MON XG_mean                      =   1.8000000000000E+02
(PID.TID 0000.0001) %MON XG_sd                        =   1.0276186062932E+02
(PID.TID 0000.0001) %MON DXC_max                      =   4.4443898815675E+05
(PID.TID 0000.0001) %MON DXC_min                      =   9.2460385861875E+04
(PID.TID 0000.0001) %MON DXC_mean                     =   3.1372497618153E+05
(PID.TID 0000.0001) %MON DXC_sd                       =   1.1216447457560E+05
(PID.TID 0000.0001) %MON DXF_max                      =   4.4443898815675E+05
(PID.TID 0000.0001) %MON DXF_min                      =   9.2460385861875E+04
(PID.TID 0000.0001) %MON DXF_mean                     =   3.1372497618153E+05
(PID.TID 0000.0001) %MON DXF_sd                       =   1.1216447457560E+05
(PID.TID 0000.0001) %MON DXG_max                      =   4.4470989340816E+05
(PID.TID 0000.0001) %MON DXG_min                      =   7.7223062580781E+04
(PID.TID 0000.0001) %MON DXG_mean                     =   3.1353386340260E+05
(PID.TID 0000.0001) %MON DXG_sd                       =   1.1256651772502E+05
(PID.TID 0000.0001) %MON DXV_max                      =   4.4470989340816E+05
(PID.TID 0000.0001) %MON DXV_min                      =   7.7223062580781E+04
(PID.TID 0000.0001) %MON DXV_mean                     =   3.1353386340260E+05
(PID.TID 0000.0001) %MON DXV_sd                       =   1.1256651772502E+05
(PID.TID 0000.0001) %MON YC_max                       =   7.8000000000000E+01
(PID.TID 0000.0001) %MON YC_min                       =  -7.8000000000000E+01
(PID.TID 0000.0001) %MON YC_mean                      =   0.0000000000000E+00
(PID.TID 0000.0001) %MON YC_sd                        =   4.6173585522461E+01
(PID.TID 0000.0001) %MON YG_max                       =   7.6000000000000E+01
(PID.TID 0000.0001) %MON YG_min                       =  -8.0000000000000E+01
(PID.TID 0000.0001) %MON YG_mean                      =  -2.0512820512821E+00
(PID.TID 0000.0001) %MON YG_sd                        =   4.6760682979564E+01
(PID.TID 0000.0001) %MON DYC_max                      =   4.4470989340816E+05
(PID.TID 0000.0001) %MON DYC_min                      =   4.4470989340816E+05
(PID.TID 0000.0001) %MON DYC_mean                     =   4.4470989340814E+05
(PID.TID 0000.0001) %MON DYC_sd                       =   1.9848812371492E-08
(PID.TID 0000.0001) %MON DYF_max                      =   4.4470989340816E+05
(PID.TID 0000.0001) %MON DYF_min                      =   4.4470989340816E+05
(PID.TID 0000.0001) %MON DYF_mean                     =   4.4470989340814E+05
(PID.TID 0000.0001) %MON DYF_sd                       =   1.9848812371492E-08
(PID.TID 0000.0001) %MON DYG_max                      =   4.4470989340816E+05
(PID.TID 0000.0001) %MON DYG_min                      =   4.4470989340816E+05
(PID.TID 0000.0001) %MON DYG_mean                     =   4.4470989340814E+05
(PID.TID 0000.0001) %MON DYG_sd                       =   1.9848812371492E-08
(PID.TID 0000.0001) %MON DYU_max                      =   4.4470989340816E+05
(PID.TID 0000.0001) %MON DYU_min                      =   4.4470989340816E+05
(PID.TID 0000.0001) %MON DYU_mean                     =   4.4470989340814E+05
(PID.TID 0000.0001) %MON DYU_sd                       =   1.9848812371492E-08
(PID.TID 0000.0001) %MON RA_max                       =   1.9760627980089E+11
(PID.TID 0000.0001) %MON RA_min                       =   4.1109698667290E+10
(PID.TID 0000.0001) %MON RA_mean                      =   1.3948826965197E+11
(PID.TID 0000.0001) %MON RA_sd                        =   4.9870522472902E+10
(PID.TID 0000.0001) %MON RAW_max                      =   1.9760627980089E+11
(PID.TID 0000.0001) %MON RAW_min                      =   4.1109698667290E+10
(PID.TID 0000.0001) %MON RAW_mean                     =   1.3948826965197E+11
(PID.TID 0000.0001) %MON RAW_sd                       =   4.9870522472902E+10
(PID.TID 0000.0001) %MON RAS_max                      =   1.9772672958215E+11
(PID.TID 0000.0001) %MON RAS_min                      =   3.4334886267982E+10
(PID.TID 0000.0001) %MON RAS_mean                     =   1.3940329716694E+11
(PID.TID 0000.0001) %MON RAS_sd                       =   5.0049278732354E+10
(PID.TID 0000.0001) %MON RAZ_max                      =   1.9772672958215E+11
(PID.TID 0000.0001) %MON RAZ_min                      =   3.4334886267982E+10
(PID.TID 0000.0001) %MON RAZ_mean                     =   1.3940329716694E+11
(PID.TID 0000.0001) %MON RAZ_sd                       =   5.0049278732354E+10
(PID.TID 0000.0001)  MDSREADFIELD: opening global file: bathymetry.bin
(PID.TID 0000.0001) // =======================================================
(PID.TID 0000.0001) // Field Model R_low (ini_masks_etc) at iteration          1
(PID.TID 0000.0001) // CMIN =         -5.200000000000000E+03
(PID.TID 0000.0001) // CMAX =         -1.200000000000000E+02
(PID.TID 0000.0001) // CINT =          1.881481481481482E+02
(PID.TID 0000.0001) // SYMBOLS (CMIN->CMAX): -abcdefghijklmnopqrstuvwxyz+
(PID.TID 0000.0001) //                  0.0: .
(PID.TID 0000.0001) // RANGE I (Lo:Hi:Step):(  -1:  92:   1)
(PID.TID 0000.0001) // RANGE J (Lo:Hi:Step):(  42:  -1:  -1)
(PID.TID 0000.0001) // RANGE K (Lo:Hi:Step):(   1:   1:   1)
(PID.TID 0000.0001) // =======================================================
(PID.TID 0000.0001) K =   1
(PID.TID 0000.0001) //                I=8       I=18      I=28      I=38      I=48      I=58      I=68      I=78      I=88
(PID.TID 0000.0001) // |--J--|*01234567|901234567|901234567|901234567|901234567|901234567|901234567|901234567|901234567|9012
(PID.TID 0000.0001) //     42 ............................................zyxxmgfeeefefgimnpwwwy..+zyy.....yyyyoiiihhz+.....
(PID.TID 0000.0001) //     41 ..............................................................................................
(PID.TID 0000.0001) //     40 qlloqz+.++++zzz++++++..................................................................+++qllo
(PID.TID 0000.0001) //     39 slloorzzzzzzzzz+...++.....................................................yxxz........+zvusllo
(PID.TID 0000.0001) //     38 mqpporzzzzzz+++...........................................................zxxy+......zyyvsmqpp
(PID.TID 0000.0001) //     37 mmmuz..................................................................++...zy+...yttyy.+smmmu
(PID.TID 0000.0001) //     36 utt+.........................................mm++....................+++++++znmm.yoowssvuyutt+
(PID.TID 0000.0001) //     35 ++++.................................+zzz..rrmmkk+...+gghn...........+++....+nmiijlsoopuww++++
(PID.TID 0000.0001) //     34 .....................................+vvy.ggqyxv+y.ccdffhim..................+nihhikkihhm+....
(PID.TID 0000.0001) //     33 +.....................................uuz---h------aaabdefin+.................zqvddflifffw+...
(PID.TID 0000.0001) //     32 +.....................................+t----h---------acdfgnn................+++gdffkofffm+...
(PID.TID 0000.0001) //     31 ......................................-----ad--------abddegil..............qbaafccdhqqgddm....
(PID.TID 0000.0001) //     30 .....................................f----b--b------------abd............zfbb--fbcdosjfddi....
(PID.TID 0000.0001) //     29 ...................................tu----e---fjg----------abdf...........eaac--abfmijaadgi....
(PID.TID 0000.0001) //     28 .................................+xfl-------------------bdedefi.........qbaa---aemfbbaaejz....
(PID.TID 0000.0001) //     27 ................xx..............+wfgfpf--------eallc---bbbccefgi...+++x.qb-----akfa---ah......
(PID.TID 0000.0001) //     26 ................xnn...........+vd---dna------a--aicfna---aabdfghku.++xssuy-----bgca---ci......
(PID.TID 0000.0001) //     25 ................iiik...oo+...+ivd---doaa-bc--ilglf--aa---aabcghhkll...ssum+xaaacjbaabdjk......
(PID.TID 0000.0001) //     24 ..............xnheeft.kkk+...uii.aagdm----aa-----a-------bbbcdefjljjju.zummwwbbchba--abi......
(PID.TID 0000.0001) //     23 ..............xgheefp.iikw...uuw..fihi----fed-----eaaa--bbbbcdfflkjiiiq....zykccefa--abd......
(PID.TID 0000.0001) //     22 uss...........bbelffslffkk...zz.wqkeeqoheccdfa-----egabaabcdddegghliiiqq......xeeehheehccquss.
(PID.TID 0000.0001) //     21 bbeir........nbbcdjhqdddiiz.....wqfeelgghmedea-----bibbcddddddefghklnqoo........ieeflhgcccbbei
(PID.TID 0000.0001) //     20 bbder.......ldcccdgkccccidd......z.vkkktqqhegg----aaacddddddddefghkiiijl.........nhfa--gfcbbde
(PID.TID 0000.0001) //     19 cdaaf.......kddosggpaaaibbccx...+z+.....r+nlec---agaaabcddccddefikfgffff...........d---cjhcdaa
(PID.TID 0000.0001) //     18 d---d.......kglggvliaaaibbcaaeaiv++...qqzolhecccfdgkaabcdfccdeeikgfgffdd+..........d---djhd---
(PID.TID 0000.0001) //     17 c---c.......l.feewlfaaaoaa----aiv.....qqnllslmlofcdbaacceffffhhligfigeddj.........hd---ckhc---
(PID.TID 0000.0001) //     16 ba--c......tn.ddgnlfdaaqa-----lv.......vnllvllnwv--accivomfffhilhgfffeddjf........re--aeigba--
(PID.TID 0000.0001) //     15 b--dpz....+ll.ccdfhmdddlc----av.........otsxoomv---abccddfihgijkhgfffeejfff......+fd---ckfb--d
(PID.TID 0000.0001) //     14 c--mcl....weeqbaafilkfend--eagy.........hhstofft----aacdheefijkmjhhjijiffff.....zlfdaaadlfc--m
(PID.TID 0000.0001) //     13 cclbbg....nccobaaiddgkffqrqeaal.........eeutqfft------aaceeffhijlkjhhigfffq....+jgfodccflhcclb
(PID.TID 0000.0001) //     12 hgaaacw+iiicclemhdddfliigfdcaabfaaaz....ccsurqpc--------abcifffikiiihhggff.....kbbbdfffglhhgaa
(PID.TID 0000.0001) //     11 gcaaacbbifccennhbbdefnihgfdccaaaa----..dcccnt.ncab-------aabcdfilhggjiggff....l---abcefjlkgcaa
(PID.TID 0000.0001) //     10 fcaaccbdaacfrllfbbdegkmmljhfdddba----d.dcccfx.nyrebaba----abcdgilhfeegijgi..+w--aa-abcfilkfcaa
(PID.TID 0000.0001) //      9 ffcdcccaaaoqsolfdeehikihhlllgfedcccccdmdcccf.vyfaaaaaaaa--abdehmjhfeeefglv.++w-----abcdfklffcd
(PID.TID 0000.0001) //      8 iffjklcaafddffeeccvznkfffhhhlkjifgjkkfeeddfsyvcaaaaaaccdcccdfgjligedbbceg+.++xffn--cfddefliffj
(PID.TID 0000.0001) //      7 mqnnbbkkf--bmbaabbgtykfddeffeeddccdfhlffeelfbaaaaaacddeghgjgjlligeddaaabedfiiiiiisvkfkecchmqnn
(PID.TID 0000.0001) //      6 ca-------------aabcelttdddedddddccccdfkkiiffbaaaabcdgimmkmefecaaabbbaaabbdfiiiiispmmregifcca--
(PID.TID 0000.0001) //      5 -------a-------aaccehhhiddeddddddcccdfiikomodddefffmlmigedccaaaaaaaababbbdfiijsqgeccccbaa-----
(PID.TID 0000.0001) //      4 -ahebaabbbbbeihffgijiiiijpywnnpokkomkiiijmmmolkommmgffeeedccaaaaaabbcccefhmz..yjgeccccbaa--ahe
(PID.TID 0000.0001) //      3 ffhhrpjiiwyy............................yxotmjjjjgfeeeeeeddeffffheddeghjkyy..yqjgeddccdbbgffhh
(PID.TID 0000.0001) //      2 ............................................zyxxmgfeeefefgimnpwwwy..+zyy.....yyyyoiiihhz+.....
(PID.TID 0000.0001) //      1 ..............................................................................................
(PID.TID 0000.0001) //      0 qlloqz+.++++zzz++++++..................................................................+++qllo
(PID.TID 0000.0001) //     -1 slloorzzzzzzzzz+...++.....................................................yxxz........+zvusllo
(PID.TID 0000.0001) // =======================================================
(PID.TID 0000.0001) // END OF FIELD                                          =
(PID.TID 0000.0001) // =======================================================
(PID.TID 0000.0001) 
(PID.TID 0000.0001) // =======================================================
(PID.TID 0000.0001) // Field Model Ro_surf (ini_masks_etc) at iteration          1
(PID.TID 0000.0001) // CMIN =          1.000000000000000E+32
(PID.TID 0000.0001) // CMAX =         -1.000000000000000E+32
(PID.TID 0000.0001) // CINT =          0.000000000000000E+00
(PID.TID 0000.0001) // SYMBOLS (CMIN->CMAX): -abcdefghijklmnopqrstuvwxyz+
(PID.TID 0000.0001) //                  0.0: .
(PID.TID 0000.0001) // RANGE I (Lo:Hi:Step):(  -1:  92:   1)
(PID.TID 0000.0001) // RANGE J (Lo:Hi:Step):(  42:  -1:  -1)
(PID.TID 0000.0001) // RANGE K (Lo:Hi:Step):(   1:   1:   1)
(PID.TID 0000.0001) // =======================================================
(PID.TID 0000.0001) K =   1
(PID.TID 0000.0001) //                I=8       I=18      I=28      I=38      I=48      I=58      I=68      I=78      I=88
(PID.TID 0000.0001) // |--J--|*01234567|901234567|901234567|901234567|901234567|901234567|901234567|901234567|901234567|9012
(PID.TID 0000.0001) //     42 ..............................................................................................
(PID.TID 0000.0001) //     41 ..............................................................................................
(PID.TID 0000.0001) //     40 ..............................................................................................
(PID.TID 0000.0001) //     39 ..............................................................................................
(PID.TID 0000.0001) //     38 ..............................................................................................
(PID.TID 0000.0001) //     37 ..............................................................................................
(PID.TID 0000.0001) //     36 ..............................................................................................
(PID.TID 0000.0001) //     35 ..............................................................................................
(PID.TID 0000.0001) //     34 ..............................................................................................
(PID.TID 0000.0001) //     33 ..............................................................................................
(PID.TID 0000.0001) //     32 ..............................................................................................
(PID.TID 0000.0001) //     31 ..............................................................................................
(PID.TID 0000.0001) //     30 ..............................................................................................
(PID.TID 0000.0001) //     29 ..............................................................................................
(PID.TID 0000.0001) //     28 ..............................................................................................
(PID.TID 0000.0001) //     27 ..............................................................................................
(PID.TID 0000.0001) //     26 ..............................................................................................
(PID.TID 0000.0001) //     25 ..............................................................................................
(PID.TID 0000.0001) //     24 ..............................................................................................
(PID.TID 0000.0001) //     23 ..............................................................................................
(PID.TID 0000.0001) //     22 ..............................................................................................
(PID.TID 0000.0001) //     21 ..............................................................................................
(PID.TID 0000.0001) //     20 ..............................................................................................
(PID.TID 0000.0001) //     19 ..............................................................................................
(PID.TID 0000.0001) //     18 ..............................................................................................
(PID.TID 0000.0001) //     17 ..............................................................................................
(PID.TID 0000.0001) //     16 ..............................................................................................
(PID.TID 0000.0001) //     15 ..............................................................................................
(PID.TID 0000.0001) //     14 ..............................................................................................
(PID.TID 0000.0001) //     13 ..............................................................................................
(PID.TID 0000.0001) //     12 ..............................................................................................
(PID.TID 0000.0001) //     11 ..............................................................................................
(PID.TID 0000.0001) //     10 ..............................................................................................
(PID.TID 0000.0001) //      9 ..............................................................................................
(PID.TID 0000.0001) //      8 ..............................................................................................
(PID.TID 0000.0001) //      7 ..............................................................................................
(PID.TID 0000.0001) //      6 ..............................................................................................
(PID.TID 0000.0001) //      5 ..............................................................................................
(PID.TID 0000.0001) //      4 ..............................................................................................
(PID.TID 0000.0001) //      3 ..............................................................................................
(PID.TID 0000.0001) //      2 ..............................................................................................
(PID.TID 0000.0001) //      1 ..............................................................................................
(PID.TID 0000.0001) //      0 ..............................................................................................
(PID.TID 0000.0001) //     -1 ..............................................................................................
(PID.TID 0000.0001) // =======================================================
(PID.TID 0000.0001) // END OF FIELD                                          =
(PID.TID 0000.0001) // =======================================================
(PID.TID 0000.0001) 
(PID.TID 0000.0001) // =======================================================
(PID.TID 0000.0001) // Field hFacC at iteration          1
(PID.TID 0000.0001) // CMIN =          1.000000000000000E+00
(PID.TID 0000.0001) // CMAX =          1.000000000000000E+00
(PID.TID 0000.0001) // CINT =          0.000000000000000E+00
(PID.TID 0000.0001) // SYMBOLS (CMIN->CMAX): -abcdefghijklmnopqrstuvwxyz+
(PID.TID 0000.0001) //                  0.0: .
(PID.TID 0000.0001) // RANGE I (Lo:Hi:Step):(  -1:  92:   1)
(PID.TID 0000.0001) // RANGE J (Lo:Hi:Step):(  42:  -1:  -1)
(PID.TID 0000.0001) // RANGE K (Lo:Hi:Step):(   1:   1:   1)
(PID.TID 0000.0001) // =======================================================
(PID.TID 0000.0001) K =   1
(PID.TID 0000.0001) //                I=8       I=18      I=28      I=38      I=48      I=58      I=68      I=78      I=88
(PID.TID 0000.0001) // |--J--|*01234567|901234567|901234567|901234567|901234567|901234567|901234567|901234567|901234567|9012
(PID.TID 0000.0001) //     42 ............................................----------------------..----.....------------.....
(PID.TID 0000.0001) //     41 ..............................................................................................
(PID.TID 0000.0001) //     40 -------.-------------..................................................................-------
(PID.TID 0000.0001) //     39 ----------------...--.....................................................----........--------
(PID.TID 0000.0001) //     38 ---------------...........................................................-----......---------
(PID.TID 0000.0001) //     37 -----..................................................................--...---...-----.------
(PID.TID 0000.0001) //     36 ----.........................................----....................-----------.-------------
(PID.TID 0000.0001) //     35 ----.................................----..-------...-----...........---....------------------
(PID.TID 0000.0001) //     34 .....................................----.--------.--------..................-------------....
(PID.TID 0000.0001) //     33 -.....................................-----------------------.................-------------...
(PID.TID 0000.0001) //     32 -.....................................-----------------------................--------------...
(PID.TID 0000.0001) //     31 ......................................-----------------------..............---------------....
(PID.TID 0000.0001) //     30 .....................................------------------------............-----------------....
(PID.TID 0000.0001) //     29 ...................................---------------------------...........-----------------....
(PID.TID 0000.0001) //     28 .................................------------------------------.........------------------....
(PID.TID 0000.0001) //     27 ................--..............--------------------------------...----.----------------......
(PID.TID 0000.0001) //     26 ................---...........------------------------------------.---------------------......
(PID.TID 0000.0001) //     25 ................----...---...--------------------------------------...------------------......
(PID.TID 0000.0001) //     24 ..............-------.----...---.-------------------------------------.-----------------......
(PID.TID 0000.0001) //     23 ..............-------.----...---..-------------------------------------....-------------......
(PID.TID 0000.0001) //     22 ---...........------------...--.----------------------------------------......---------------.
(PID.TID 0000.0001) //     21 -----........--------------.....----------------------------------------........--------------
(PID.TID 0000.0001) //     20 -----.......---------------......-.-------------------------------------.........-------------
(PID.TID 0000.0001) //     19 -----.......-----------------...---.....--------------------------------...........-----------
(PID.TID 0000.0001) //     18 -----.......-----------------------...-----------------------------------..........-----------
(PID.TID 0000.0001) //     17 -----.......-.-------------------.....-----------------------------------.........------------
(PID.TID 0000.0001) //     16 -----......--.------------------.......-----------------------------------........------------
(PID.TID 0000.0001) //     15 ------....---.-----------------.........-----------------------------------......-------------
(PID.TID 0000.0001) //     14 ------....---------------------.........-----------------------------------.....--------------
(PID.TID 0000.0001) //     13 ------....---------------------.........-----------------------------------....---------------
(PID.TID 0000.0001) //     12 ------------------------------------....----------------------------------.....---------------
(PID.TID 0000.0001) //     11 -------------------------------------..------.----------------------------....----------------
(PID.TID 0000.0001) //     10 --------------------------------------.------.----------------------------..------------------
(PID.TID 0000.0001) //      9 --------------------------------------------.-----------------------------.-------------------
(PID.TID 0000.0001) //      8 --------------------------------------------------------------------------.-------------------
(PID.TID 0000.0001) //      7 ----------------------------------------------------------------------------------------------
(PID.TID 0000.0001) //      6 ----------------------------------------------------------------------------------------------
(PID.TID 0000.0001) //      5 ----------------------------------------------------------------------------------------------
(PID.TID 0000.0001) //      4 ----------------------------------------------------------------------------..----------------
(PID.TID 0000.0001) //      3 ------------............................-----------------------------------..-----------------
(PID.TID 0000.0001) //      2 ............................................----------------------..----.....------------.....
(PID.TID 0000.0001) //      1 ..............................................................................................
(PID.TID 0000.0001) //      0 -------.-------------..................................................................-------
(PID.TID 0000.0001) //     -1 ----------------...--.....................................................----........--------
(PID.TID 0000.0001) // =======================================================
(PID.TID 0000.0001) // END OF FIELD                                          =
(PID.TID 0000.0001) // =======================================================
(PID.TID 0000.0001) 
(PID.TID 0000.0001) // =======================================================
(PID.TID 0000.0001) // Field hFacW at iteration          1
(PID.TID 0000.0001) // CMIN =          1.000000000000000E+00
(PID.TID 0000.0001) // CMAX =          1.000000000000000E+00
(PID.TID 0000.0001) // CINT =          0.000000000000000E+00
(PID.TID 0000.0001) // SYMBOLS (CMIN->CMAX): -abcdefghijklmnopqrstuvwxyz+
(PID.TID 0000.0001) //                  0.0: .
(PID.TID 0000.0001) // RANGE I (Lo:Hi:Step):(  -1:  92:   1)
(PID.TID 0000.0001) // RANGE J (Lo:Hi:Step):(  42:  -1:  -1)
(PID.TID 0000.0001) // RANGE K (Lo:Hi:Step):(   1:   1:   1)
(PID.TID 0000.0001) // =======================================================
(PID.TID 0000.0001) K =   1
(PID.TID 0000.0001) //                I=8       I=18      I=28      I=38      I=48      I=58      I=68      I=78      I=88
(PID.TID 0000.0001) // |--J--|*01234567|901234567|901234567|901234567|901234567|901234567|901234567|901234567|901234567|9012
(PID.TID 0000.0001) //     42 .............................................---------------------...---......-----------.....
(PID.TID 0000.0001) //     41 ..............................................................................................
(PID.TID 0000.0001) //     40 -------..------------...................................................................------
(PID.TID 0000.0001) //     39 ----------------....-......................................................---.........-------
(PID.TID 0000.0001) //     38 ---------------............................................................----.......--------
(PID.TID 0000.0001) //     37 -----...................................................................-....--....----..-----
(PID.TID 0000.0001) //     36 ----..........................................---.....................----------..------------
(PID.TID 0000.0001) //     35 ----..................................---...------....----............--.....-----------------
(PID.TID 0000.0001) //     34 ......................................---..-------..-------...................------------....
(PID.TID 0000.0001) //     33 -......................................----------------------..................------------...
(PID.TID 0000.0001) //     32 -......................................----------------------.................-------------...
(PID.TID 0000.0001) //     31 .......................................----------------------...............--------------....
(PID.TID 0000.0001) //     30 ......................................-----------------------.............----------------....
(PID.TID 0000.0001) //     29 ....................................--------------------------............----------------....
(PID.TID 0000.0001) //     28 ..................................-----------------------------..........-----------------....
(PID.TID 0000.0001) //     27 .................-...............-------------------------------....---..---------------......
(PID.TID 0000.0001) //     26 .................--............-----------------------------------..--------------------......
(PID.TID 0000.0001) //     25 .................---....--....-------------------------------------....-----------------......
(PID.TID 0000.0001) //     24 ...............------..---....--..------------------------------------..----------------......
(PID.TID 0000.0001) //     23 ...............------..---....--...------------------------------------.....------------......
(PID.TID 0000.0001) //     22 ---............-----------....-..---------------------------------------.......--------------.
(PID.TID 0000.0001) //     21 -----.........-------------......---------------------------------------.........-------------
(PID.TID 0000.0001) //     20 -----........--------------.........------------------------------------..........------------
(PID.TID 0000.0001) //     19 -----........----------------....--......-------------------------------............----------
(PID.TID 0000.0001) //     18 -----........----------------------....----------------------------------...........----------
(PID.TID 0000.0001) //     17 -----..........------------------......----------------------------------..........-----------
(PID.TID 0000.0001) //     16 -----.......-..-----------------........----------------------------------.........-----------
(PID.TID 0000.0001) //     15 ------.....--..----------------..........----------------------------------.......------------
(PID.TID 0000.0001) //     14 ------.....--------------------..........----------------------------------......-------------
(PID.TID 0000.0001) //     13 ------.....--------------------..........----------------------------------.....--------------
(PID.TID 0000.0001) //     12 ------------------------------------.....---------------------------------......--------------
(PID.TID 0000.0001) //     11 -------------------------------------...-----..---------------------------.....---------------
(PID.TID 0000.0001) //     10 --------------------------------------..-----..---------------------------...-----------------
(PID.TID 0000.0001) //      9 --------------------------------------------..----------------------------..------------------
(PID.TID 0000.0001) //      8 --------------------------------------------------------------------------..------------------
(PID.TID 0000.0001) //      7 ----------------------------------------------------------------------------------------------
(PID.TID 0000.0001) //      6 ----------------------------------------------------------------------------------------------
(PID.TID 0000.0001) //      5 ----------------------------------------------------------------------------------------------
(PID.TID 0000.0001) //      4 ----------------------------------------------------------------------------...---------------
(PID.TID 0000.0001) //      3 ------------.............................----------------------------------...----------------
(PID.TID 0000.0001) //      2 .............................................---------------------...---......-----------.....
(PID.TID 0000.0001) //      1 ..............................................................................................
(PID.TID 0000.0001) //      0 -------..------------...................................................................------
(PID.TID 0000.0001) //     -1 ----------------....-......................................................---.........-------
(PID.TID 0000.0001) // =======================================================
(PID.TID 0000.0001) // END OF FIELD                                          =
(PID.TID 0000.0001) // =======================================================
(PID.TID 0000.0001) 
(PID.TID 0000.0001) // =======================================================
(PID.TID 0000.0001) // Field hFacS at iteration          1
(PID.TID 0000.0001) // CMIN =          1.000000000000000E+00
(PID.TID 0000.0001) // CMAX =          1.000000000000000E+00
(PID.TID 0000.0001) // CINT =          0.000000000000000E+00
(PID.TID 0000.0001) // SYMBOLS (CMIN->CMAX): -abcdefghijklmnopqrstuvwxyz+
(PID.TID 0000.0001) //                  0.0: .
(PID.TID 0000.0001) // RANGE I (Lo:Hi:Step):(  -1:  92:   1)
(PID.TID 0000.0001) // RANGE J (Lo:Hi:Step):(  42:  -1:  -1)
(PID.TID 0000.0001) // RANGE K (Lo:Hi:Step):(   1:   1:   1)
(PID.TID 0000.0001) // =======================================================
(PID.TID 0000.0001) K =   1
(PID.TID 0000.0001) //                I=8       I=18      I=28      I=38      I=48      I=58      I=68      I=78      I=88
(PID.TID 0000.0001) // |--J--|*01234567|901234567|901234567|901234567|901234567|901234567|901234567|901234567|901234567|9012
(PID.TID 0000.0001) //     42 ..............................................................................................
(PID.TID 0000.0001) //     41 ..............................................................................................
(PID.TID 0000.0001) //     40 -------.--------...--..................................................................-------
(PID.TID 0000.0001) //     39 ---------------...........................................................----........--------
(PID.TID 0000.0001) //     38 -----.......................................................................---......--.------
(PID.TID 0000.0001) //     37 ----...................................................................--...---...-----.------
(PID.TID 0000.0001) //     36 ----.........................................----....................---....----.-------------
(PID.TID 0000.0001) //     35 .....................................----..-------...-----...................-------------....
(PID.TID 0000.0001) //     34 ......................................---.--------.--------...................------------....
(PID.TID 0000.0001) //     33 -.....................................-----------------------.................-------------...
(PID.TID 0000.0001) //     32 ......................................-----------------------................-------------....
(PID.TID 0000.0001) //     31 ......................................-----------------------..............---------------....
(PID.TID 0000.0001) //     30 .....................................------------------------............-----------------....
(PID.TID 0000.0001) //     29 ...................................---------------------------...........-----------------....
(PID.TID 0000.0001) //     28 .................................------------------------------.........----------------......
(PID.TID 0000.0001) //     27 ................--..............--------------------------------...----.----------------......
(PID.TID 0000.0001) //     26 ................---...........------------------------------------....------------------......
(PID.TID 0000.0001) //     25 ................----...---...---.----------------------------------....-----------------......
(PID.TID 0000.0001) //     24 ..............-------.----...---..------------------------------------.....-------------......
(PID.TID 0000.0001) //     23 ..............-------.----...--...-------------------------------------.......----------......
(PID.TID 0000.0001) //     22 ---...........------------......----------------------------------------........-------------.
(PID.TID 0000.0001) //     21 -----........--------------......-.-------------------------------------.........-------------
(PID.TID 0000.0001) //     20 -----.......---------------......-......--------------------------------...........-----------
(PID.TID 0000.0001) //     19 -----.......-----------------...---.....--------------------------------...........-----------
(PID.TID 0000.0001) //     18 -----.......-.-------------------.....-----------------------------------..........-----------
(PID.TID 0000.0001) //     17 -----.......-.------------------.......----------------------------------.........------------
(PID.TID 0000.0001) //     16 -----......--.-----------------.........----------------------------------........------------
(PID.TID 0000.0001) //     15 ------....---.-----------------.........-----------------------------------......-------------
(PID.TID 0000.0001) //     14 ------....---------------------.........-----------------------------------.....--------------
(PID.TID 0000.0001) //     13 ------....---------------------.........----------------------------------.....---------------
(PID.TID 0000.0001) //     12 ------------------------------------....-----.----------------------------.....---------------
(PID.TID 0000.0001) //     11 -------------------------------------..------.----------------------------....----------------
(PID.TID 0000.0001) //     10 --------------------------------------.-----..----------------------------..------------------
(PID.TID 0000.0001) //      9 --------------------------------------------.-----------------------------.-------------------
(PID.TID 0000.0001) //      8 --------------------------------------------------------------------------.-------------------
(PID.TID 0000.0001) //      7 ----------------------------------------------------------------------------------------------
(PID.TID 0000.0001) //      6 ----------------------------------------------------------------------------------------------
(PID.TID 0000.0001) //      5 ----------------------------------------------------------------------------..----------------
(PID.TID 0000.0001) //      4 ------------............................-----------------------------------...----------------
(PID.TID 0000.0001) //      3 ............................................----------------------..----.....------------.....
(PID.TID 0000.0001) //      2 ..............................................................................................
(PID.TID 0000.0001) //      1 ..............................................................................................
(PID.TID 0000.0001) //      0 -------.--------...--..................................................................-------
(PID.TID 0000.0001) //     -1 ---------------...........................................................----........--------
(PID.TID 0000.0001) // =======================================================
(PID.TID 0000.0001) // END OF FIELD                                          =
(PID.TID 0000.0001) // =======================================================
(PID.TID 0000.0001) 
(PID.TID 0000.0001)  PACKAGES_BOOT: opening data.pkg
(PID.TID 0000.0001)  OPEN_COPY_DATA_FILE: opening file data.pkg
(PID.TID 0000.0001) // =======================================================
(PID.TID 0000.0001) // Parameter file "data.pkg"
(PID.TID 0000.0001) // =======================================================
(PID.TID 0000.0001) ># Packages
(PID.TID 0000.0001) > &PACKAGES
(PID.TID 0000.0001) > useGMRedi=.TRUE.,
(PID.TID 0000.0001) ># use genmake with  -enable=ptracers  before uncommenting this line.
(PID.TID 0000.0001) >#usePTRACERS=.TRUE.,
(PID.TID 0000.0001) > &
(PID.TID 0000.0001) >
(PID.TID 0000.0001) 
(PID.TID 0000.0001)  PACKAGES_BOOT: finished reading data.pkg
(PID.TID 0000.0001)  GM_READPARMS: opening data.gmredi
(PID.TID 0000.0001)  OPEN_COPY_DATA_FILE: opening file data.gmredi
(PID.TID 0000.0001) // =======================================================
(PID.TID 0000.0001) // Parameter file "data.gmredi"
(PID.TID 0000.0001) // =======================================================
(PID.TID 0000.0001) ># GM+Redi package parameters:
(PID.TID 0000.0001) >
(PID.TID 0000.0001) >#-from MOM :
(PID.TID 0000.0001) ># GM_background_K: 	G & Mc.W  diffusion coefficient
(PID.TID 0000.0001) ># GM_maxSlope    :	max slope of isopycnals
(PID.TID 0000.0001) ># GM_Scrit       :	transition for scaling diffusion coefficient
(PID.TID 0000.0001) ># GM_Sd          :	half width scaling for diffusion coefficient
(PID.TID 0000.0001) ># GM_taper_scheme:	slope clipping or one of the tapering schemes
(PID.TID 0000.0001) ># GM_Kmin_horiz  :	horizontal diffusion minimum value
(PID.TID 0000.0001) >
(PID.TID 0000.0001) >#-Option parameters (needs to "define" options in GMREDI_OPTIONS.h")
(PID.TID 0000.0001) ># GM_isopycK     :	isopycnal diffusion coefficient (default=GM_background_K)
(PID.TID 0000.0001) ># GM_AdvForm     :	turn on GM Advective form       (default=Skew flux form)
(PID.TID 0000.0001) >
(PID.TID 0000.0001) > &GM_PARM01
(PID.TID 0000.0001) >  GM_background_K    = 1.e+3,
(PID.TID 0000.0001) >  GM_taper_scheme    = 'gkw91',
(PID.TID 0000.0001) >  GM_maxSlope        = 1.e-2,
(PID.TID 0000.0001) >  GM_Kmin_horiz      = 50.,
(PID.TID 0000.0001) >  GM_Scrit           = 4.e-3,
(PID.TID 0000.0001) >  GM_Sd              = 1.e-3,
(PID.TID 0000.0001) ># GM_Visbeck_alpha   = 0.,
(PID.TID 0000.0001) ># GM_Visbeck_length  = 2.e+5,
(PID.TID 0000.0001) ># GM_Visbeck_depth   = 1.e+3,
(PID.TID 0000.0001) ># GM_Visbeck_maxval_K= 2.5e+3,
(PID.TID 0000.0001) > &end
(PID.TID 0000.0001) >
(PID.TID 0000.0001) >
(PID.TID 0000.0001) 
(PID.TID 0000.0001)  GM_READPARMS: finished reading data.gmredi
(PID.TID 0000.0001) 
(PID.TID 0000.0001) // =======================================================
(PID.TID 0000.0001) // Calendar configuration >>> START <<<
(PID.TID 0000.0001) // =======================================================
(PID.TID 0000.0001) 
(PID.TID 0000.0001) Calendar version: 0.2.0
(PID.TID 0000.0001) 
(PID.TID 0000.0001) startTime =   /* Start time of the model integration [s] */
(PID.TID 0000.0001)                 0.000000000000000E+00
(PID.TID 0000.0001)     ;
(PID.TID 0000.0001) endTime =   /* End time of the model integration [s] */
(PID.TID 0000.0001)                 8.640000000000000E+05
(PID.TID 0000.0001)     ;
(PID.TID 0000.0001) deltatclock =   /* Time interval for a model forward step [s] */
(PID.TID 0000.0001)                 4.320000000000000E+04
(PID.TID 0000.0001)     ;
(PID.TID 0000.0001) usingGregorianCalendar =  /* Calendar Type: Gregorian Calendar */
(PID.TID 0000.0001)                   T
(PID.TID 0000.0001)     ;
(PID.TID 0000.0001) usingJulianCalendar =  /* Calendar Type: Julian Calendar */
(PID.TID 0000.0001)                   F
(PID.TID 0000.0001)     ;
(PID.TID 0000.0001) usingModelCalendar =  /* Calendar Type: Model Calendar */
(PID.TID 0000.0001)                   F
(PID.TID 0000.0001)     ;
(PID.TID 0000.0001) usingNoCalendar =  /* Calendar Type: No Calendar */
(PID.TID 0000.0001)                   F
(PID.TID 0000.0001)     ;
(PID.TID 0000.0001) modelstartdate (YYYYMMDD) =   /* Model start date YYYY-MM-DD  */
(PID.TID 0000.0001)                19920101
(PID.TID 0000.0001)     ;
(PID.TID 0000.0001) modelstartdate (HHMMSS) =   /* Model start date HH-MM-SS  */
(PID.TID 0000.0001)                       0
(PID.TID 0000.0001)     ;
(PID.TID 0000.0001) modelenddate (YYYYMMDD) =   /* Model end date YYYY-MM-DD  */
(PID.TID 0000.0001)                19920111
(PID.TID 0000.0001)     ;
(PID.TID 0000.0001) modelenddate (HHMMSS) =   /* Model end date HH-MM-SS  */
(PID.TID 0000.0001)                       0
(PID.TID 0000.0001)     ;
(PID.TID 0000.0001) intyears =   /* Number of calendar years affected by the integration  */
(PID.TID 0000.0001)                       1
(PID.TID 0000.0001)     ;
(PID.TID 0000.0001) intmonths =   /* Number of calendar months affected by the integration  */
(PID.TID 0000.0001)                       1
(PID.TID 0000.0001)     ;
(PID.TID 0000.0001) intdays =   /* Number of calendar days affected by the integration  */
(PID.TID 0000.0001)                      10
(PID.TID 0000.0001)     ;
(PID.TID 0000.0001) nIter0 =   /* Base timestep number  */
(PID.TID 0000.0001)                       0
(PID.TID 0000.0001)     ;
(PID.TID 0000.0001) nEndIter =   /* Final timestep number  */
(PID.TID 0000.0001)                      20
(PID.TID 0000.0001)     ;
(PID.TID 0000.0001) nTimeSteps =   /* Number of model timesteps  */
(PID.TID 0000.0001)                      20
(PID.TID 0000.0001)     ;
(PID.TID 0000.0001) 
(PID.TID 0000.0001) // =======================================================
(PID.TID 0000.0001) // Calendar configuration  >>> END <<<
(PID.TID 0000.0001) // =======================================================
(PID.TID 0000.0001) 
(PID.TID 0000.0001) Processing namelist file data.exf ...
(PID.TID 0000.0001) 
(PID.TID 0000.0001) // =======================================================
(PID.TID 0000.0001) // External forcing configuration >>> START <<<
(PID.TID 0000.0001) // =======================================================
(PID.TID 0000.0001) 
(PID.TID 0000.0001) External forcing version: 0.2.2
(PID.TID 0000.0001) Uses Calendar version:    0.2.0
(PID.TID 0000.0001) 
(PID.TID 0000.0001) // ALLOW_ATM_TEMP:                 NOT defined
(PID.TID 0000.0001) // ALLOW_ATM_WIND:                 NOT defined
(PID.TID 0000.0001) // ALLOW_DOWNWARD_RADIATION:       NOT defined
(PID.TID 0000.0001) // ALLOW_BULKFORMULAE:             NOT defined
(PID.TID 0000.0001) 
(PID.TID 0000.0001)    Zonal wind stress forcing starts at                   0.
(PID.TID 0000.0001)    Zonal wind stress forcing period is             2592000.
(PID.TID 0000.0001)    Zonal wind stress forcing is read from file:
(PID.TID 0000.0001)    >>  trenberth_taux.bin  <<
(PID.TID 0000.0001) 
(PID.TID 0000.0001)    Meridional wind stress forcing starts at              0.
(PID.TID 0000.0001)    Meridional wind stress forcing period is        2592000.
(PID.TID 0000.0001)    Meridional wind stress forcing is read from file:
(PID.TID 0000.0001)    >>  trenberth_tauy.bin  <<
(PID.TID 0000.0001) 
(PID.TID 0000.0001)    Heat flux forcing starts at                          0.
(PID.TID 0000.0001)    Heat flux forcing period is                     2592000.
(PID.TID 0000.0001)    Heat flux forcing is read from file:
(PID.TID 0000.0001)    >>  ncep_qnet.bin  <<
(PID.TID 0000.0001) 
(PID.TID 0000.0001)    Salt flux forcing starts at                           0.
(PID.TID 0000.0001)    Salt flux forcing period is                     2592000.
(PID.TID 0000.0001)    Salt flux forcing is read from file:
(PID.TID 0000.0001)    >>    <<
(PID.TID 0000.0001) // EXF_READ_EVAP:                  NOT defined
(PID.TID 0000.0001) // ALLOW_RUNOFF:                   NOT defined
(PID.TID 0000.0001) 
(PID.TID 0000.0001)    Atmospheric pressure forcing starts at       1562979840.
(PID.TID 0000.0001)    Atmospheric pressure forcing period is                0.
(PID.TID 0000.0001)    Atmospheric pressureforcing is read from file:
(PID.TID 0000.0001)    >>    <<
(PID.TID 0000.0001) 
(PID.TID 0000.0001) // =======================================================
(PID.TID 0000.0001) // External forcing configuration  >>> END <<<
(PID.TID 0000.0001) // =======================================================
(PID.TID 0000.0001) 
(PID.TID 0000.0001) Processing namelist file data.exf_clim ...
(PID.TID 0000.0001) 
(PID.TID 0000.0001) // =======================================================
(PID.TID 0000.0001) // External forcing climatology configuration >>> START <<<
(PID.TID 0000.0001) // =======================================================
(PID.TID 0000.0001) 
(PID.TID 0000.0001) External forcing version: 0.2.2
(PID.TID 0000.0001) Uses Calendar version:    0.2.0
(PID.TID 0000.0001) 
(PID.TID 0000.0001) // ALLOW_CLIMTEMP_RELAXATION:      NOT defined
(PID.TID 0000.0001) // ALLOW_CLIMSALT_RELAXATION:      NOT defined
(PID.TID 0000.0001) // ALLOW_CLIMSST_RELAXATION:           defined
(PID.TID 0000.0001) // ALLOW_CLIMSSS_RELAXATION:           defined
(PID.TID 0000.0001) 
(PID.TID 0000.0001)    Climatological SST starts at                   0.
(PID.TID 0000.0001)    Climatological SST period is             2592000.
(PID.TID 0000.0001)    Climatological SST is read from file:
(PID.TID 0000.0001)    >>  lev_sst.bin  <<
(PID.TID 0000.0001) 
(PID.TID 0000.0001)    Climatological SSS starts at                   0.
(PID.TID 0000.0001)    Climatological SSS period is             2592000.
(PID.TID 0000.0001)    Climatological SSS is read from file:
(PID.TID 0000.0001)    >>  lev_sss.bin  <<
(PID.TID 0000.0001) 
(PID.TID 0000.0001) // =======================================================
(PID.TID 0000.0001) // External forcing climatology configuration  >>> END <<<
(PID.TID 0000.0001) // =======================================================
(PID.TID 0000.0001) 
(PID.TID 0000.0001) GMREDI_CHECK: #define GMREDI
(PID.TID 0000.0001) GM_AdvForm =  /* if FALSE => use SkewFlux Form */
(PID.TID 0000.0001)                   F
(PID.TID 0000.0001)     ;
(PID.TID 0000.0001) GM_AdvSeparate = /* Calc Bolus & Euler Adv. separately */
(PID.TID 0000.0001)                   F
(PID.TID 0000.0001)     ;
(PID.TID 0000.0001) GM_ExtraDiag =  /* Tensor Extra Diag (line 1&2) non 0 */
(PID.TID 0000.0001)                   F
(PID.TID 0000.0001)     ;
(PID.TID 0000.0001) GM_isopycK =   /* Background Isopyc. Diffusivity ( m^2/s ) */
(PID.TID 0000.0001)                 1.000000000000000E+03
(PID.TID 0000.0001)     ;
(PID.TID 0000.0001)  GM_skewflx*K =   /* Background GM_SkewFlx Diffusivity ( m^2/s ) */
(PID.TID 0000.0001)                 1.000000000000000E+03
(PID.TID 0000.0001)     ;
(PID.TID 0000.0001)  GM_advec*K =   /* Backg. GM-Advec(=Bolus) Diffusivity ( m^2/s ) */
(PID.TID 0000.0001)                 0.000000000000000E+00
(PID.TID 0000.0001)     ;
(PID.TID 0000.0001)  GM_Visbeck_alpha =   /* Visbeck alpha coeff. ( ) */
(PID.TID 0000.0001)                 0.000000000000000E+00
(PID.TID 0000.0001)     ;
(PID.TID 0000.0001)  Tapering/Cliping : gkw91
(PID.TID 0000.0001)  GM_Small_Number =  /* epsilon used in slope calc */
(PID.TID 0000.0001)                 1.000000000000000E-12
(PID.TID 0000.0001)     ;
(PID.TID 0000.0001)  GM_slopeSqCutoff =  /* Slope^2 cut-off value */
(PID.TID 0000.0001)                 1.000000000000000E+48
(PID.TID 0000.0001)     ;
(PID.TID 0000.0001) 
(PID.TID 0000.0001) // ===================================
(PID.TID 0000.0001) // GAD parameters :
(PID.TID 0000.0001) // ===================================
(PID.TID 0000.0001) tempAdvScheme =   /* Temp. advection scheme selector */
(PID.TID 0000.0001)                       2
(PID.TID 0000.0001)     ;
(PID.TID 0000.0001) tempMultiDimAdvec =   /* use Muti-Dim Advec method for Temp */
(PID.TID 0000.0001)                   F
(PID.TID 0000.0001)     ;
(PID.TID 0000.0001) tempAdamsBashforth =   /* use Adams-Bashforth time-stepping for Temp */
(PID.TID 0000.0001)                   T
(PID.TID 0000.0001)     ;
(PID.TID 0000.0001) saltAdvScheme =   /* Salt. advection scheme selector */
(PID.TID 0000.0001)                       2
(PID.TID 0000.0001)     ;
(PID.TID 0000.0001) saltMultiDimAdvec =   /* use Muti-Dim Advec method for Salt */
(PID.TID 0000.0001)                   F
(PID.TID 0000.0001)     ;
(PID.TID 0000.0001) saltAdamsBashforth =   /* use Adams-Bashforth time-stepping for Salt */
(PID.TID 0000.0001)                   T
(PID.TID 0000.0001)     ;
(PID.TID 0000.0001) // ===================================
(PID.TID 0000.0001) %MON fCori_max                    =   1.4226580169407E-04
(PID.TID 0000.0001) %MON fCori_min                    =  -1.4226580169407E-04
(PID.TID 0000.0001) %MON fCori_mean                   =   7.5291817533716E-23
(PID.TID 0000.0001) %MON fCori_sd                     =   9.6335367303778E-05
(PID.TID 0000.0001) %MON fCoriG_max                   =   1.4112379284621E-04
(PID.TID 0000.0001) %MON fCoriG_min                   =  -1.4323448157692E-04
(PID.TID 0000.0001) %MON fCoriG_mean                  =  -3.6726790147928E-06
(PID.TID 0000.0001) %MON fCoriG_sd                    =   9.7510077443652E-05
(PID.TID 0000.0001) %MON fCoriCos_max                 =   1.4535550371427E-04
(PID.TID 0000.0001) %MON fCoriCos_min                 =   3.0239529651320E-05
(PID.TID 0000.0001) %MON fCoriCos_mean                =   1.0260497651149E-04
(PID.TID 0000.0001) %MON fCoriCos_sd                  =   3.6683828681187E-05
(PID.TID 0000.0001) // CG2D normalisation factor =          0.6568267742571170272718184E-04
(PID.TID 0000.0001) 
(PID.TID 0000.0001) CONFIG_CHECK: OK
(PID.TID 0000.0001) // =======================================================
(PID.TID 0000.0001) // Model configuration
(PID.TID 0000.0001) // =======================================================
(PID.TID 0000.0001) //
(PID.TID 0000.0001) // "Physical" paramters ( PARM01 in namelist )
(PID.TID 0000.0001) //
(PID.TID 0000.0001) buoyancyRelation = OCEANIC
(PID.TID 0000.0001) tRef =   /* Reference temperature profile ( oC or oK ) */
(PID.TID 0000.0001)    15 @  2.000000000000000E+01              /* K =  1: 15 */
(PID.TID 0000.0001)     ;
(PID.TID 0000.0001) sRef =   /* Reference salinity profile ( ppt ) */
(PID.TID 0000.0001)    15 @  3.500000000000000E+01              /* K =  1: 15 */
(PID.TID 0000.0001)     ;
(PID.TID 0000.0001) viscAh =   /* Lateral eddy viscosity ( m^2/s ) */
(PID.TID 0000.0001)                 5.000000000000000E+05
(PID.TID 0000.0001)     ;
(PID.TID 0000.0001) viscAh =   /* Lateral biharmonic viscosity ( m^4/s ) */
(PID.TID 0000.0001)                 0.000000000000000E+00
(PID.TID 0000.0001)     ;
(PID.TID 0000.0001) no_slip_sides =  /* Viscous BCs: No-slip sides */
(PID.TID 0000.0001)                   T
(PID.TID 0000.0001)     ;
(PID.TID 0000.0001) viscAr =   /* Vertical eddy viscosity ( units of r^2/s ) */
(PID.TID 0000.0001)                 1.000000000000000E-03
(PID.TID 0000.0001)     ;
(PID.TID 0000.0001) diffKhT =   /* Laplacian diffusion of heat laterally ( m^2/s ) */
(PID.TID 0000.0001)                 0.000000000000000E+00
(PID.TID 0000.0001)     ;
(PID.TID 0000.0001) diffK4T =   /* Bihaarmonic diffusion of heat laterally ( m^4/s ) */
(PID.TID 0000.0001)                 0.000000000000000E+00
(PID.TID 0000.0001)     ;
(PID.TID 0000.0001) diffKzT =   /* Laplacian diffusion of heat vertically ( m^2/s ) */
(PID.TID 0000.0001)                 1.234567000000000E+05
(PID.TID 0000.0001)     ;
(PID.TID 0000.0001) diffKrT =   /* Laplacian diffusion of heat vertically ( m^2/s ) */
(PID.TID 0000.0001)                 3.000000000000000E-05
(PID.TID 0000.0001)     ;
(PID.TID 0000.0001) diffKhS =   /* Laplacian diffusion of salt laterally ( m^2/s ) */
(PID.TID 0000.0001)                 0.000000000000000E+00
(PID.TID 0000.0001)     ;
(PID.TID 0000.0001) diffK4S =   /* Bihaarmonic diffusion of salt laterally ( m^4/s ) */
(PID.TID 0000.0001)                 0.000000000000000E+00
(PID.TID 0000.0001)     ;
(PID.TID 0000.0001) diffKzS =   /* Laplacian diffusion of salt vertically ( m^2/s ) */
(PID.TID 0000.0001)                 1.234567000000000E+05
(PID.TID 0000.0001)     ;
(PID.TID 0000.0001) diffKrS =   /* Laplacian diffusion of salt vertically ( m^2/s ) */
(PID.TID 0000.0001)                 3.000000000000000E-05
(PID.TID 0000.0001)     ;
(PID.TID 0000.0001)  Equation of State : eosType = POLY3
(PID.TID 0000.0001) tAlpha =   /* Linear EOS thermal expansion coefficient ( 1/degree ) */
(PID.TID 0000.0001)                 1.234567000000000E+05
(PID.TID 0000.0001)     ;
(PID.TID 0000.0001) sBeta =   /* Linear EOS haline contraction coefficient ( 1/ppt ) */
(PID.TID 0000.0001)                 1.234567000000000E+05
(PID.TID 0000.0001)     ;
(PID.TID 0000.0001)   1  13.497  32.600  24.548  -0.202   0.773  -0.005  -0.002   0.000   0.000   0.000   0.000   0.000
(PID.TID 0000.0001)   2  13.488  32.600  24.819  -0.204   0.773  -0.005  -0.002   0.000   0.000   0.000   0.000   0.000
(PID.TID 0000.0001)   3  13.476  32.600  25.201  -0.205   0.772  -0.005  -0.002   0.000   0.000   0.000   0.000   0.000
(PID.TID 0000.0001)   4   8.469  35.150  28.642  -0.163   0.784  -0.005  -0.002   0.000   0.000   0.000   0.000   0.000
(PID.TID 0000.0001)   5   8.451  35.150  29.393  -0.167   0.782  -0.005  -0.002   0.000   0.000   0.000   0.000   0.000
(PID.TID 0000.0001)   6   5.940  34.900  30.563  -0.144   0.786  -0.005  -0.002  -0.001   0.000   0.000   0.000   0.000
(PID.TID 0000.0001)   7   4.425  34.900  31.985  -0.134   0.788  -0.005  -0.003   0.000   0.000   0.000   0.000   0.000
(PID.TID 0000.0001)   8   2.911  34.750  33.505  -0.125   0.789  -0.006  -0.003   0.000   0.000   0.000   0.000   0.000
(PID.TID 0000.0001)   9   1.893  34.800  35.341  -0.123   0.789  -0.006  -0.003   0.000   0.000   0.000   0.000   0.000
(PID.TID 0000.0001)  10   1.367  34.800  37.299  -0.129   0.787  -0.006  -0.003   0.000   0.000   0.000   0.000   0.000
(PID.TID 0000.0001)  11   1.327  34.800  39.405  -0.141   0.783  -0.005  -0.003   0.000   0.000   0.000   0.000   0.000
(PID.TID 0000.0001)  12   0.791  34.800  41.788  -0.149   0.780  -0.005  -0.003   0.000   0.000   0.000   0.000   0.000
(PID.TID 0000.0001)  13   0.736  34.750  44.259  -0.164   0.776  -0.005  -0.002   0.000   0.000   0.000   0.000   0.000
(PID.TID 0000.0001)  14   0.186  34.750  47.044  -0.175   0.773  -0.005  -0.002   0.000   0.000   0.000   0.000   0.000
(PID.TID 0000.0001)  15   0.595  34.750  49.835  -0.196   0.767  -0.004  -0.002   0.000   0.000   0.000   0.000   0.000
(PID.TID 0000.0001) rhonil =   /* Reference density ( kg/m^3 ) */
(PID.TID 0000.0001)                 1.035000000000000E+03
(PID.TID 0000.0001)     ;
(PID.TID 0000.0001) rhoConst =   /* Reference density ( kg/m^3 ) */
(PID.TID 0000.0001)                 1.035000000000000E+03
(PID.TID 0000.0001)     ;
(PID.TID 0000.0001) rhoConstFresh =   /* Reference density ( kg/m^3 ) */
(PID.TID 0000.0001)                 9.998000000000000E+02
(PID.TID 0000.0001)     ;
(PID.TID 0000.0001) gravity =   /* Gravitational acceleration ( m/s^2 ) */
(PID.TID 0000.0001)                 9.810000000000000E+00
(PID.TID 0000.0001)     ;
(PID.TID 0000.0001) gBaro =   /* Barotropic gravity ( m/s^2 ) */
(PID.TID 0000.0001)                 9.810000000000000E+00
(PID.TID 0000.0001)     ;
(PID.TID 0000.0001) rotationPeriod =   /* Rotation Period ( s ) */
(PID.TID 0000.0001)                 8.640000000000000E+04
(PID.TID 0000.0001)     ;
(PID.TID 0000.0001) omega =   /* Angular velocity ( rad/s ) */
(PID.TID 0000.0001)                 7.272205216643040E-05
(PID.TID 0000.0001)     ;
(PID.TID 0000.0001) f0 =   /* Reference coriolis parameter ( 1/s ) */
(PID.TID 0000.0001)                 1.000000000000000E-04
(PID.TID 0000.0001)     ;
(PID.TID 0000.0001) beta =   /* Beta ( 1/(m.s) ) */
(PID.TID 0000.0001)                 9.999999999999999E-12
(PID.TID 0000.0001)     ;
(PID.TID 0000.0001) freeSurfFac =   /* Implicit free surface factor */
(PID.TID 0000.0001)                 1.000000000000000E+00
(PID.TID 0000.0001)     ;
(PID.TID 0000.0001) implicitFreeSurface =   /* Implicit free surface on/off flag */
(PID.TID 0000.0001)                   T
(PID.TID 0000.0001)     ;
(PID.TID 0000.0001) rigidLid =   /* Rigid lid on/off flag */
(PID.TID 0000.0001)                   F
(PID.TID 0000.0001)     ;
(PID.TID 0000.0001) implicSurfPress =   /* Surface Pressure implicit factor (0-1)*/
(PID.TID 0000.0001)                 1.000000000000000E+00
(PID.TID 0000.0001)     ;
(PID.TID 0000.0001) implicDiv2Dflow =   /* Barot. Flow Div. implicit factor (0-1)*/
(PID.TID 0000.0001)                 1.000000000000000E+00
(PID.TID 0000.0001)     ;
(PID.TID 0000.0001) exactConserv =   /* Exact Volume Conservation on/off flag*/
(PID.TID 0000.0001)                   F
(PID.TID 0000.0001)     ;
(PID.TID 0000.0001) uniformLin_PhiSurf =   /* use uniform Bo_surf on/off flag*/
(PID.TID 0000.0001)                   T
(PID.TID 0000.0001)     ;
(PID.TID 0000.0001) nonlinFreeSurf =   /* Non-linear Free Surf. options (-1,0,1,2,3)*/
(PID.TID 0000.0001)                       0
(PID.TID 0000.0001)     ;
(PID.TID 0000.0001)      -1,0= Off ; 1,2,3= On, 2=+rescale gU,gV, 3=+update cg2d solv.
(PID.TID 0000.0001) hFacInf =   /* lower threshold for hFac (nonlinFreeSurf only)*/
(PID.TID 0000.0001)                 2.000000000000000E-01
(PID.TID 0000.0001)     ;
(PID.TID 0000.0001) hFacSup =   /* upper threshold for hFac (nonlinFreeSurf only)*/
(PID.TID 0000.0001)                 2.000000000000000E+00
(PID.TID 0000.0001)     ;
(PID.TID 0000.0001) select_rStar =   /* r* Coordinate options (not yet implemented)*/
(PID.TID 0000.0001)                       0
(PID.TID 0000.0001)     ;
(PID.TID 0000.0001) useRealFreshWaterFlux =   /* Real Fresh Water Flux on/off flag*/
(PID.TID 0000.0001)                   T
(PID.TID 0000.0001)     ;
(PID.TID 0000.0001) convertFW2Salt = /* convert F.W. Flux to Salt Flux (-1=use local S)(ppt)*/
(PID.TID 0000.0001)                -1.000000000000000E+00
(PID.TID 0000.0001)     ;
(PID.TID 0000.0001) multiDimAdvection =   /* enable/disable Multi-Dim Advection */
(PID.TID 0000.0001)                   T
(PID.TID 0000.0001)     ;
(PID.TID 0000.0001) staggerTimeStep =   /* Stagger time stepping on/off flag */
(PID.TID 0000.0001)                   F
(PID.TID 0000.0001)     ;
(PID.TID 0000.0001) momStepping =  /* Momentum equation on/off flag */
(PID.TID 0000.0001)                   T
(PID.TID 0000.0001)     ;
(PID.TID 0000.0001) momAdvection =  /* Momentum advection on/off flag */
(PID.TID 0000.0001)                   T
(PID.TID 0000.0001)     ;
(PID.TID 0000.0001) momViscosity =  /* Momentum viscosity on/off flag */
(PID.TID 0000.0001)                   T
(PID.TID 0000.0001)     ;
(PID.TID 0000.0001) useCoriolis =  /* Coriolis on/off flag */
(PID.TID 0000.0001)                   T
(PID.TID 0000.0001)     ;
(PID.TID 0000.0001) momForcing =  /* Momentum forcing on/off flag */
(PID.TID 0000.0001)                   T
(PID.TID 0000.0001)     ;
(PID.TID 0000.0001) momPressureForcing =  /* Momentum pressure term on/off flag */
(PID.TID 0000.0001)                   T
(PID.TID 0000.0001)     ;
(PID.TID 0000.0001) tempStepping =  /* Temperature equation on/off flag */
(PID.TID 0000.0001)                   T
(PID.TID 0000.0001)     ;
(PID.TID 0000.0001) tempAdvection=  /* Temperature advection on/off flag */
(PID.TID 0000.0001)                   T
(PID.TID 0000.0001)     ;
(PID.TID 0000.0001) tempForcing  =  /* Temperature forcing on/off flag */
(PID.TID 0000.0001)                   T
(PID.TID 0000.0001)     ;
(PID.TID 0000.0001) saltStepping =  /* Salinity equation on/off flag */
(PID.TID 0000.0001)                   T
(PID.TID 0000.0001)     ;
(PID.TID 0000.0001) saltAdvection=  /* Salinity advection on/off flag */
(PID.TID 0000.0001)                   T
(PID.TID 0000.0001)     ;
(PID.TID 0000.0001) saltForcing  =  /* Salinity forcing on/off flag */
(PID.TID 0000.0001)                   T
(PID.TID 0000.0001)     ;
(PID.TID 0000.0001) nonHydrostatic =  /* Non-Hydrostatic on/off flag */
(PID.TID 0000.0001)                   F
(PID.TID 0000.0001)     ;
(PID.TID 0000.0001) useCDscheme =  /* CD scheme on/off flag */
(PID.TID 0000.0001)                   T
(PID.TID 0000.0001)     ;
(PID.TID 0000.0001) useJamartWetPoints= /* Coriolis WetPoints method flag */
(PID.TID 0000.0001)                   F
(PID.TID 0000.0001)     ;
(PID.TID 0000.0001) //
(PID.TID 0000.0001) // Elliptic solver(s) paramters ( PARM02 in namelist )
(PID.TID 0000.0001) //
(PID.TID 0000.0001) cg2dMaxIters =   /* Upper limit on 2d con. grad iterations  */
(PID.TID 0000.0001)                     500
(PID.TID 0000.0001)     ;
(PID.TID 0000.0001) cg2dChkResFreq =   /* 2d con. grad convergence test frequency */
(PID.TID 0000.0001)                       1
(PID.TID 0000.0001)     ;
(PID.TID 0000.0001) cg2dTargetResidual =   /* 2d con. grad target residual  */
(PID.TID 0000.0001)                 1.000000000000000E-13
(PID.TID 0000.0001)     ;
(PID.TID 0000.0001) //
(PID.TID 0000.0001) // Time stepping paramters ( PARM03 in namelist )
(PID.TID 0000.0001) //
(PID.TID 0000.0001) nIter0 =   /* Base timestep number  */
(PID.TID 0000.0001)                       0
(PID.TID 0000.0001)     ;
(PID.TID 0000.0001) nTimeSteps =   /* Number of timesteps */
(PID.TID 0000.0001)                      20
(PID.TID 0000.0001)     ;
(PID.TID 0000.0001) deltatTmom =   /* Momentum equation timestep ( s ) */
(PID.TID 0000.0001)                 1.200000000000000E+03
(PID.TID 0000.0001)     ;
(PID.TID 0000.0001) deltaTfreesurf =   /* FreeSurface equation timestep ( s ) */
(PID.TID 0000.0001)                 1.200000000000000E+03
(PID.TID 0000.0001)     ;
(PID.TID 0000.0001) deltatTtracer =   /* Tracer equation timestep ( s ) */
(PID.TID 0000.0001)                 4.320000000000000E+04
(PID.TID 0000.0001)     ;
(PID.TID 0000.0001) deltatTClock  =   /* Model clock timestep ( s ) */
(PID.TID 0000.0001)                 4.320000000000000E+04
(PID.TID 0000.0001)     ;
(PID.TID 0000.0001) cAdjFreq =   /* Convective adjustment interval ( s ) */
(PID.TID 0000.0001)                 0.000000000000000E+00
(PID.TID 0000.0001)     ;
(PID.TID 0000.0001) forcing_In_AB =   /* put T,S Forcing in Adams-Bash. stepping */
(PID.TID 0000.0001)                   T
(PID.TID 0000.0001)     ;
(PID.TID 0000.0001) abeps =   /* Adams-Bashforth stabilizing weight */
(PID.TID 0000.0001)                 1.000000000000000E-01
(PID.TID 0000.0001)     ;
(PID.TID 0000.0001) tauCD =   /* CD coupling time-scale ( s ) */
(PID.TID 0000.0001)                 3.214280000000000E+05
(PID.TID 0000.0001)     ;
(PID.TID 0000.0001) rCD =   /* Normalised CD coupling parameter */
(PID.TID 0000.0001)                 9.962666600296178E-01
(PID.TID 0000.0001)     ;
(PID.TID 0000.0001) startTime =   /* Run start time ( s ). */
(PID.TID 0000.0001)                 0.000000000000000E+00
(PID.TID 0000.0001)     ;
(PID.TID 0000.0001) endTime =   /* Integration ending time ( s ). */
(PID.TID 0000.0001)                 8.640000000000000E+05
(PID.TID 0000.0001)     ;
(PID.TID 0000.0001) pChkPtFreq =   /* Permanent restart/checkpoint file interval ( s ). */
(PID.TID 0000.0001)                 3.110400000000000E+08
(PID.TID 0000.0001)     ;
(PID.TID 0000.0001) chkPtFreq =   /* Rolling restart/checkpoint file interval ( s ). */
(PID.TID 0000.0001)                 0.000000000000000E+00
(PID.TID 0000.0001)     ;
(PID.TID 0000.0001) dumpFreq =   /* Model state write out interval ( s ). */
(PID.TID 0000.0001)                 8.640000000000000E+05
(PID.TID 0000.0001)     ;
(PID.TID 0000.0001) externForcingPeriod =   /* forcing period (s) */
(PID.TID 0000.0001)                 2.592000000000000E+06
(PID.TID 0000.0001)     ;
(PID.TID 0000.0001) externForcingCycle =   /* period of the cyle (s). */
(PID.TID 0000.0001)                 3.110400000000000E+07
(PID.TID 0000.0001)     ;
(PID.TID 0000.0001) tauThetaClimRelax =   /* relaxation time scale (s) */
(PID.TID 0000.0001)                 5.184000000000000E+06
(PID.TID 0000.0001)     ;
(PID.TID 0000.0001) tauSaltClimRelax =   /* relaxation time scale (s) */
(PID.TID 0000.0001)                 1.555200000000000E+07
(PID.TID 0000.0001)     ;
(PID.TID 0000.0001) latBandClimRelax =   /* max. Lat. where relaxation */
(PID.TID 0000.0001)                 1.800000000000000E+02
(PID.TID 0000.0001)     ;
(PID.TID 0000.0001) //
(PID.TID 0000.0001) // Gridding paramters ( PARM04 in namelist )
(PID.TID 0000.0001) //
(PID.TID 0000.0001) usingCartesianGrid =   /* Cartesian coordinates flag ( True / False ) */
(PID.TID 0000.0001)                   F
(PID.TID 0000.0001)     ;
(PID.TID 0000.0001) usingSphericalPolarGrid =   /* Spherical coordinates flag ( True / False ) */
(PID.TID 0000.0001)                   T
(PID.TID 0000.0001)     ;
(PID.TID 0000.0001) groundAtK1 =   /* Lower Boundary (ground) at the surface(k=1) ( T / F ) */
(PID.TID 0000.0001)                   F
(PID.TID 0000.0001)     ;
(PID.TID 0000.0001) Ro_SeaLevel =   /* r(1) ( units of r ) */
(PID.TID 0000.0001)                 0.000000000000000E+00
(PID.TID 0000.0001)     ;
(PID.TID 0000.0001) rkFac =   /* minus Vertical index orientation  */
(PID.TID 0000.0001)                 1.000000000000000E+00
(PID.TID 0000.0001)     ;
(PID.TID 0000.0001) horiVertRatio =   /* Ratio on units : Horiz - Vertical */
(PID.TID 0000.0001)                 1.000000000000000E+00
(PID.TID 0000.0001)     ;
(PID.TID 0000.0001) drC =   /* C spacing ( units of r ) */
(PID.TID 0000.0001)                 2.500000000000000E+01,      /* K =  1 */
(PID.TID 0000.0001)                 6.000000000000000E+01,      /* K =  2 */
(PID.TID 0000.0001)                 8.500000000000000E+01,      /* K =  3 */
(PID.TID 0000.0001)                 1.200000000000000E+02,      /* K =  4 */
(PID.TID 0000.0001)                 1.650000000000000E+02,      /* K =  5 */
(PID.TID 0000.0001)                 2.150000000000000E+02,      /* K =  6 */
(PID.TID 0000.0001)                 2.650000000000000E+02,      /* K =  7 */
(PID.TID 0000.0001)                 3.150000000000000E+02,      /* K =  8 */
(PID.TID 0000.0001)                 3.650000000000000E+02,      /* K =  9 */
(PID.TID 0000.0001)                 4.150000000000000E+02,      /* K = 10 */
(PID.TID 0000.0001)                 4.650000000000000E+02,      /* K = 11 */
(PID.TID 0000.0001)                 5.150000000000000E+02,      /* K = 12 */
(PID.TID 0000.0001)                 5.650000000000000E+02,      /* K = 13 */
(PID.TID 0000.0001)                 6.150000000000000E+02,      /* K = 14 */
(PID.TID 0000.0001)                 6.650000000000000E+02       /* K = 15 */
(PID.TID 0000.0001)     ;
(PID.TID 0000.0001) drF =   /* W spacing ( units of r ) */
(PID.TID 0000.0001)                 5.000000000000000E+01,      /* K =  1 */
(PID.TID 0000.0001)                 7.000000000000000E+01,      /* K =  2 */
(PID.TID 0000.0001)                 1.000000000000000E+02,      /* K =  3 */
(PID.TID 0000.0001)                 1.400000000000000E+02,      /* K =  4 */
(PID.TID 0000.0001)                 1.900000000000000E+02,      /* K =  5 */
(PID.TID 0000.0001)                 2.400000000000000E+02,      /* K =  6 */
(PID.TID 0000.0001)                 2.900000000000000E+02,      /* K =  7 */
(PID.TID 0000.0001)                 3.400000000000000E+02,      /* K =  8 */
(PID.TID 0000.0001)                 3.900000000000000E+02,      /* K =  9 */
(PID.TID 0000.0001)                 4.400000000000000E+02,      /* K = 10 */
(PID.TID 0000.0001)                 4.900000000000000E+02,      /* K = 11 */
(PID.TID 0000.0001)                 5.400000000000000E+02,      /* K = 12 */
(PID.TID 0000.0001)                 5.900000000000000E+02,      /* K = 13 */
(PID.TID 0000.0001)                 6.400000000000000E+02,      /* K = 14 */
(PID.TID 0000.0001)                 6.900000000000000E+02       /* K = 15 */
(PID.TID 0000.0001)     ;
(PID.TID 0000.0001) delX =   /* U spacing ( m - cartesian, degrees - spherical ) */
(PID.TID 0000.0001)    90 @  4.000000000000000E+00              /* I =  1: 90 */
(PID.TID 0000.0001)     ;
(PID.TID 0000.0001) delY =   /* V spacing ( m - cartesian, degrees - spherical ) */
(PID.TID 0000.0001)    40 @  4.000000000000000E+00              /* J =  1: 40 */
(PID.TID 0000.0001)     ;
(PID.TID 0000.0001) phiMin =    /* South edge (ignored - cartesian, degrees - spherical ) */
(PID.TID 0000.0001)                -8.000000000000000E+01
(PID.TID 0000.0001)     ;
(PID.TID 0000.0001) thetaMin =    /* West edge ( ignored - cartesian, degrees - spherical ) */
(PID.TID 0000.0001)                 0.000000000000000E+00
(PID.TID 0000.0001)     ;
(PID.TID 0000.0001) rSphere =    /* Radius ( ignored - cartesian, m - spherical ) */
(PID.TID 0000.0001)                 6.370000000000000E+06
(PID.TID 0000.0001)     ;
(PID.TID 0000.0001) xcoord =   /* P-point X coord ( m - cartesian, degrees - spherical ) */
(PID.TID 0000.0001)                 2.000000000000000E+00,      /* I =  1 */
(PID.TID 0000.0001)                 6.000000000000000E+00,      /* I =  2 */
(PID.TID 0000.0001)                 1.000000000000000E+01,      /* I =  3 */
(PID.TID 0000.0001)                 1.400000000000000E+01,      /* I =  4 */
(PID.TID 0000.0001)                 1.800000000000000E+01,      /* I =  5 */
(PID.TID 0000.0001)                 2.200000000000000E+01,      /* I =  6 */
(PID.TID 0000.0001)                 2.600000000000000E+01,      /* I =  7 */
(PID.TID 0000.0001)                 3.000000000000000E+01,      /* I =  8 */
(PID.TID 0000.0001)                 3.400000000000000E+01,      /* I =  9 */
(PID.TID 0000.0001)                 3.800000000000000E+01,      /* I = 10 */
(PID.TID 0000.0001)                 4.200000000000000E+01,      /* I = 11 */
(PID.TID 0000.0001)                 4.600000000000000E+01,      /* I = 12 */
(PID.TID 0000.0001)                 5.000000000000000E+01,      /* I = 13 */
(PID.TID 0000.0001)                 5.400000000000000E+01,      /* I = 14 */
(PID.TID 0000.0001)                 5.800000000000000E+01,      /* I = 15 */
(PID.TID 0000.0001)                 6.200000000000000E+01,      /* I = 16 */
(PID.TID 0000.0001)                 6.600000000000000E+01,      /* I = 17 */
(PID.TID 0000.0001)                 7.000000000000000E+01,      /* I = 18 */
(PID.TID 0000.0001)                 7.400000000000000E+01,      /* I = 19 */
(PID.TID 0000.0001)                 7.800000000000000E+01,      /* I = 20 */
(PID.TID 0000.0001)                 8.200000000000000E+01,      /* I = 21 */
(PID.TID 0000.0001)                 8.600000000000000E+01,      /* I = 22 */
(PID.TID 0000.0001)                 9.000000000000000E+01,      /* I = 23 */
(PID.TID 0000.0001)                 9.400000000000000E+01,      /* I = 24 */
(PID.TID 0000.0001)                 9.800000000000000E+01,      /* I = 25 */
(PID.TID 0000.0001)                 1.020000000000000E+02,      /* I = 26 */
(PID.TID 0000.0001)                 1.060000000000000E+02,      /* I = 27 */
(PID.TID 0000.0001)                 1.100000000000000E+02,      /* I = 28 */
(PID.TID 0000.0001)                 1.140000000000000E+02,      /* I = 29 */
(PID.TID 0000.0001)                 1.180000000000000E+02,      /* I = 30 */
(PID.TID 0000.0001)                 1.220000000000000E+02,      /* I = 31 */
(PID.TID 0000.0001)                 1.260000000000000E+02,      /* I = 32 */
(PID.TID 0000.0001)                 1.300000000000000E+02,      /* I = 33 */
(PID.TID 0000.0001)                 1.340000000000000E+02,      /* I = 34 */
(PID.TID 0000.0001)                 1.380000000000000E+02,      /* I = 35 */
(PID.TID 0000.0001)                 1.420000000000000E+02,      /* I = 36 */
(PID.TID 0000.0001)                 1.460000000000000E+02,      /* I = 37 */
(PID.TID 0000.0001)                 1.500000000000000E+02,      /* I = 38 */
(PID.TID 0000.0001)                 1.540000000000000E+02,      /* I = 39 */
(PID.TID 0000.0001)                 1.580000000000000E+02,      /* I = 40 */
(PID.TID 0000.0001)                 1.620000000000000E+02,      /* I = 41 */
(PID.TID 0000.0001)                 1.660000000000000E+02,      /* I = 42 */
(PID.TID 0000.0001)                 1.700000000000000E+02,      /* I = 43 */
(PID.TID 0000.0001)                 1.740000000000000E+02,      /* I = 44 */
(PID.TID 0000.0001)                 1.780000000000000E+02,      /* I = 45 */
(PID.TID 0000.0001)                 1.820000000000000E+02,      /* I = 46 */
(PID.TID 0000.0001)                 1.860000000000000E+02,      /* I = 47 */
(PID.TID 0000.0001)                 1.900000000000000E+02,      /* I = 48 */
(PID.TID 0000.0001)                 1.940000000000000E+02,      /* I = 49 */
(PID.TID 0000.0001)                 1.980000000000000E+02,      /* I = 50 */
(PID.TID 0000.0001)                 2.020000000000000E+02,      /* I = 51 */
(PID.TID 0000.0001)                 2.060000000000000E+02,      /* I = 52 */
(PID.TID 0000.0001)                 2.100000000000000E+02,      /* I = 53 */
(PID.TID 0000.0001)                 2.140000000000000E+02,      /* I = 54 */
(PID.TID 0000.0001)                 2.180000000000000E+02,      /* I = 55 */
(PID.TID 0000.0001)                 2.220000000000000E+02,      /* I = 56 */
(PID.TID 0000.0001)                 2.260000000000000E+02,      /* I = 57 */
(PID.TID 0000.0001)                 2.300000000000000E+02,      /* I = 58 */
(PID.TID 0000.0001)                 2.340000000000000E+02,      /* I = 59 */
(PID.TID 0000.0001)                 2.380000000000000E+02,      /* I = 60 */
(PID.TID 0000.0001)                 2.420000000000000E+02,      /* I = 61 */
(PID.TID 0000.0001)                 2.460000000000000E+02,      /* I = 62 */
(PID.TID 0000.0001)                 2.500000000000000E+02,      /* I = 63 */
(PID.TID 0000.0001)                 2.540000000000000E+02,      /* I = 64 */
(PID.TID 0000.0001)                 2.580000000000000E+02,      /* I = 65 */
(PID.TID 0000.0001)                 2.620000000000000E+02,      /* I = 66 */
(PID.TID 0000.0001)                 2.660000000000000E+02,      /* I = 67 */
(PID.TID 0000.0001)                 2.700000000000000E+02,      /* I = 68 */
(PID.TID 0000.0001)                 2.740000000000000E+02,      /* I = 69 */
(PID.TID 0000.0001)                 2.780000000000000E+02,      /* I = 70 */
(PID.TID 0000.0001)                 2.820000000000000E+02,      /* I = 71 */
(PID.TID 0000.0001)                 2.860000000000000E+02,      /* I = 72 */
(PID.TID 0000.0001)                 2.900000000000000E+02,      /* I = 73 */
(PID.TID 0000.0001)                 2.940000000000000E+02,      /* I = 74 */
(PID.TID 0000.0001)                 2.980000000000000E+02,      /* I = 75 */
(PID.TID 0000.0001)                 3.020000000000000E+02,      /* I = 76 */
(PID.TID 0000.0001)                 3.060000000000000E+02,      /* I = 77 */
(PID.TID 0000.0001)                 3.100000000000000E+02,      /* I = 78 */
(PID.TID 0000.0001)                 3.140000000000000E+02,      /* I = 79 */
(PID.TID 0000.0001)                 3.180000000000000E+02,      /* I = 80 */
(PID.TID 0000.0001)                 3.220000000000000E+02,      /* I = 81 */
(PID.TID 0000.0001)                 3.260000000000000E+02,      /* I = 82 */
(PID.TID 0000.0001)                 3.300000000000000E+02,      /* I = 83 */
(PID.TID 0000.0001)                 3.340000000000000E+02,      /* I = 84 */
(PID.TID 0000.0001)                 3.380000000000000E+02,      /* I = 85 */
(PID.TID 0000.0001)                 3.420000000000000E+02,      /* I = 86 */
(PID.TID 0000.0001)                 3.460000000000000E+02,      /* I = 87 */
(PID.TID 0000.0001)                 3.500000000000000E+02,      /* I = 88 */
(PID.TID 0000.0001)                 3.540000000000000E+02,      /* I = 89 */
(PID.TID 0000.0001)                 3.580000000000000E+02       /* I = 90 */
(PID.TID 0000.0001)     ;
(PID.TID 0000.0001) ycoord =   /* P-point Y coord ( m - cartesian, degrees - spherical ) */
(PID.TID 0000.0001)                -7.800000000000000E+01,      /* J =  1 */
(PID.TID 0000.0001)                -7.400000000000000E+01,      /* J =  2 */
(PID.TID 0000.0001)                -7.000000000000000E+01,      /* J =  3 */
(PID.TID 0000.0001)                -6.600000000000000E+01,      /* J =  4 */
(PID.TID 0000.0001)                -6.200000000000000E+01,      /* J =  5 */
(PID.TID 0000.0001)                -5.800000000000000E+01,      /* J =  6 */
(PID.TID 0000.0001)                -5.400000000000000E+01,      /* J =  7 */
(PID.TID 0000.0001)                -5.000000000000000E+01,      /* J =  8 */
(PID.TID 0000.0001)                -4.600000000000000E+01,      /* J =  9 */
(PID.TID 0000.0001)                -4.200000000000000E+01,      /* J = 10 */
(PID.TID 0000.0001)                -3.800000000000000E+01,      /* J = 11 */
(PID.TID 0000.0001)                -3.400000000000000E+01,      /* J = 12 */
(PID.TID 0000.0001)                -3.000000000000000E+01,      /* J = 13 */
(PID.TID 0000.0001)                -2.600000000000000E+01,      /* J = 14 */
(PID.TID 0000.0001)                -2.200000000000000E+01,      /* J = 15 */
(PID.TID 0000.0001)                -1.800000000000000E+01,      /* J = 16 */
(PID.TID 0000.0001)                -1.400000000000000E+01,      /* J = 17 */
(PID.TID 0000.0001)                -1.000000000000000E+01,      /* J = 18 */
(PID.TID 0000.0001)                -6.000000000000000E+00,      /* J = 19 */
(PID.TID 0000.0001)                -2.000000000000000E+00,      /* J = 20 */
(PID.TID 0000.0001)                 2.000000000000000E+00,      /* J = 21 */
(PID.TID 0000.0001)                 6.000000000000000E+00,      /* J = 22 */
(PID.TID 0000.0001)                 1.000000000000000E+01,      /* J = 23 */
(PID.TID 0000.0001)                 1.400000000000000E+01,      /* J = 24 */
(PID.TID 0000.0001)                 1.800000000000000E+01,      /* J = 25 */
(PID.TID 0000.0001)                 2.200000000000000E+01,      /* J = 26 */
(PID.TID 0000.0001)                 2.600000000000000E+01,      /* J = 27 */
(PID.TID 0000.0001)                 3.000000000000000E+01,      /* J = 28 */
(PID.TID 0000.0001)                 3.400000000000000E+01,      /* J = 29 */
(PID.TID 0000.0001)                 3.800000000000000E+01,      /* J = 30 */
(PID.TID 0000.0001)                 4.200000000000000E+01,      /* J = 31 */
(PID.TID 0000.0001)                 4.600000000000000E+01,      /* J = 32 */
(PID.TID 0000.0001)                 5.000000000000000E+01,      /* J = 33 */
(PID.TID 0000.0001)                 5.400000000000000E+01,      /* J = 34 */
(PID.TID 0000.0001)                 5.800000000000000E+01,      /* J = 35 */
(PID.TID 0000.0001)                 6.200000000000000E+01,      /* J = 36 */
(PID.TID 0000.0001)                 6.600000000000000E+01,      /* J = 37 */
(PID.TID 0000.0001)                 7.000000000000000E+01,      /* J = 38 */
(PID.TID 0000.0001)                 7.400000000000000E+01,      /* J = 39 */
(PID.TID 0000.0001)                 7.800000000000000E+01       /* J = 40 */
(PID.TID 0000.0001)     ;
(PID.TID 0000.0001) rcoord =   /* P-point R coordinate (  units of r ) */
(PID.TID 0000.0001)                -2.500000000000000E+01,      /* K =  1 */
(PID.TID 0000.0001)                -8.500000000000000E+01,      /* K =  2 */
(PID.TID 0000.0001)                -1.700000000000000E+02,      /* K =  3 */
(PID.TID 0000.0001)                -2.900000000000000E+02,      /* K =  4 */
(PID.TID 0000.0001)                -4.550000000000000E+02,      /* K =  5 */
(PID.TID 0000.0001)                -6.700000000000000E+02,      /* K =  6 */
(PID.TID 0000.0001)                -9.350000000000000E+02,      /* K =  7 */
(PID.TID 0000.0001)                -1.250000000000000E+03,      /* K =  8 */
(PID.TID 0000.0001)                -1.615000000000000E+03,      /* K =  9 */
(PID.TID 0000.0001)                -2.030000000000000E+03,      /* K = 10 */
(PID.TID 0000.0001)                -2.495000000000000E+03,      /* K = 11 */
(PID.TID 0000.0001)                -3.010000000000000E+03,      /* K = 12 */
(PID.TID 0000.0001)                -3.575000000000000E+03,      /* K = 13 */
(PID.TID 0000.0001)                -4.190000000000000E+03,      /* K = 14 */
(PID.TID 0000.0001)                -4.855000000000000E+03       /* K = 15 */
(PID.TID 0000.0001)     ;
(PID.TID 0000.0001) rF =   /* W-Interf. R coordinate (  units of r ) */
(PID.TID 0000.0001)                 0.000000000000000E+00,      /* K =  1 */
(PID.TID 0000.0001)                -5.000000000000000E+01,      /* K =  2 */
(PID.TID 0000.0001)                -1.200000000000000E+02,      /* K =  3 */
(PID.TID 0000.0001)                -2.200000000000000E+02,      /* K =  4 */
(PID.TID 0000.0001)                -3.600000000000000E+02,      /* K =  5 */
(PID.TID 0000.0001)                -5.500000000000000E+02,      /* K =  6 */
(PID.TID 0000.0001)                -7.900000000000000E+02,      /* K =  7 */
(PID.TID 0000.0001)                -1.080000000000000E+03,      /* K =  8 */
(PID.TID 0000.0001)                -1.420000000000000E+03,      /* K =  9 */
(PID.TID 0000.0001)                -1.810000000000000E+03,      /* K = 10 */
(PID.TID 0000.0001)                -2.250000000000000E+03,      /* K = 11 */
(PID.TID 0000.0001)                -2.740000000000000E+03,      /* K = 12 */
(PID.TID 0000.0001)                -3.280000000000000E+03,      /* K = 13 */
(PID.TID 0000.0001)                -3.870000000000000E+03,      /* K = 14 */
(PID.TID 0000.0001)                -4.510000000000000E+03,      /* K = 15 */
(PID.TID 0000.0001)                -5.200000000000000E+03       /* K = 16 */
(PID.TID 0000.0001)     ;
(PID.TID 0000.0001) dxF =  /* dxF(:,1,:,1) ( m - cartesian, degrees - spherical ) */
(PID.TID 0000.0001)    90 @  9.246038586187513E+04              /* I =  1: 90 */
(PID.TID 0000.0001)     ;
(PID.TID 0000.0001) dxF =  /* dxF(1,:,1,:) ( m - cartesian, degrees - spherical ) */
(PID.TID 0000.0001)                 9.246038586187513E+04,      /* J =  1 */
(PID.TID 0000.0001)                 1.225786591246834E+05,      /* J =  2 */
(PID.TID 0000.0001)                 1.520997414818001E+05,      /* J =  3 */
(PID.TID 0000.0001)                 1.808798091874300E+05,      /* J =  4 */
(PID.TID 0000.0001)                 2.087786486446736E+05,      /* J =  5 */
(PID.TID 0000.0001)                 2.356603395120766E+05,      /* J =  6 */
(PID.TID 0000.0001)                 2.613939168938713E+05,      /* J =  7 */
(PID.TID 0000.0001)                 2.858540093877838E+05,      /* J =  8 */
(PID.TID 0000.0001)                 3.089214498819035E+05,      /* J =  9 */
(PID.TID 0000.0001)                 3.304838561248741E+05,      /* J = 10 */
(PID.TID 0000.0001)                 3.504361782409254E+05,      /* J = 11 */
(PID.TID 0000.0001)                 3.686812105223083E+05,      /* J = 12 */
(PID.TID 0000.0001)                 3.851300650057322E+05,      /* J = 13 */
(PID.TID 0000.0001)                 3.997026045255871E+05,      /* J = 14 */
(PID.TID 0000.0001)                 4.123278331341585E+05,      /* J = 15 */
(PID.TID 0000.0001)                 4.229442419867491E+05,      /* J = 16 */
(PID.TID 0000.0001)                 4.315001090065869E+05,      /* J = 17 */
(PID.TID 0000.0001)                 4.379537508695839E+05,      /* J = 18 */
(PID.TID 0000.0001)                 4.422737260813013E+05,      /* J = 19 */
(PID.TID 0000.0001)     2 @  4.444389881567501E+05,             /* J = 20: 21 */
(PID.TID 0000.0001)                 4.422737260813013E+05,      /* J = 22 */
(PID.TID 0000.0001)                 4.379537508695839E+05,      /* J = 23 */
(PID.TID 0000.0001)                 4.315001090065869E+05,      /* J = 24 */
(PID.TID 0000.0001)                 4.229442419867491E+05,      /* J = 25 */
(PID.TID 0000.0001)                 4.123278331341585E+05,      /* J = 26 */
(PID.TID 0000.0001)                 3.997026045255871E+05,      /* J = 27 */
(PID.TID 0000.0001)                 3.851300650057322E+05,      /* J = 28 */
(PID.TID 0000.0001)                 3.686812105223083E+05,      /* J = 29 */
(PID.TID 0000.0001)                 3.504361782409254E+05,      /* J = 30 */
(PID.TID 0000.0001)                 3.304838561248741E+05,      /* J = 31 */
(PID.TID 0000.0001)                 3.089214498819035E+05,      /* J = 32 */
(PID.TID 0000.0001)                 2.858540093877838E+05,      /* J = 33 */
(PID.TID 0000.0001)                 2.613939168938713E+05,      /* J = 34 */
(PID.TID 0000.0001)                 2.356603395120766E+05,      /* J = 35 */
(PID.TID 0000.0001)                 2.087786486446736E+05,      /* J = 36 */
(PID.TID 0000.0001)                 1.808798091874300E+05,      /* J = 37 */
(PID.TID 0000.0001)                 1.520997414818001E+05,      /* J = 38 */
(PID.TID 0000.0001)                 1.225786591246834E+05,      /* J = 39 */
(PID.TID 0000.0001)                 9.246038586187513E+04       /* J = 40 */
(PID.TID 0000.0001)     ;
(PID.TID 0000.0001) dyF =  /* dyF(:,1,:,1) ( m - cartesian, degrees - spherical ) */
(PID.TID 0000.0001)    90 @  4.447098934081552E+05              /* I =  1: 90 */
(PID.TID 0000.0001)     ;
(PID.TID 0000.0001) dyF =  /* dyF(1,:,1,:) ( m - cartesian, degrees - spherical ) */
(PID.TID 0000.0001)    40 @  4.447098934081552E+05              /* J =  1: 40 */
(PID.TID 0000.0001)     ;
(PID.TID 0000.0001) dxG =  /* dxG(:,1,:,1) ( m - cartesian, degrees - spherical ) */
(PID.TID 0000.0001)    90 @  7.722306258078101E+04              /* I =  1: 90 */
(PID.TID 0000.0001)     ;
(PID.TID 0000.0001) dxG =  /* dxG(1,:,1,:) ( m - cartesian, degrees - spherical ) */
(PID.TID 0000.0001)                 7.722306258078101E+04,      /* J =  1 */
(PID.TID 0000.0001)                 1.075850604052271E+05,      /* J =  2 */
(PID.TID 0000.0001)                 1.374229146297914E+05,      /* J =  3 */
(PID.TID 0000.0001)                 1.665912582279823E+05,      /* J =  4 */
(PID.TID 0000.0001)                 1.949479859617814E+05,      /* J =  5 */
(PID.TID 0000.0001)                 2.223549467040776E+05,      /* J =  6 */
(PID.TID 0000.0001)                 2.486786164970726E+05,      /* J =  7 */
(PID.TID 0000.0001)                 2.737907490675810E+05,      /* J =  8 */
(PID.TID 0000.0001)                 2.975690006299820E+05,      /* J =  9 */
(PID.TID 0000.0001)                 3.198975259328452E+05,      /* J = 10 */
(PID.TID 0000.0001)                 3.406675426453503E+05,      /* J = 11 */
(PID.TID 0000.0001)                 3.597778613338689E+05,      /* J = 12 */
(PID.TID 0000.0001)                 3.771353784467131E+05,      /* J = 13 */
(PID.TID 0000.0001)                 3.926555299052806E+05,      /* J = 14 */
(PID.TID 0000.0001)                 4.062627030917454E+05,      /* J = 15 */
(PID.TID 0000.0001)                 4.178906052261313E+05,      /* J = 16 */
(PID.TID 0000.0001)                 4.274825863380723E+05,      /* J = 17 */
(PID.TID 0000.0001)                 4.349919152597734E+05,      /* J = 18 */
(PID.TID 0000.0001)                 4.403820072955634E+05,      /* J = 19 */
(PID.TID 0000.0001)                 4.436266024588540E+05,      /* J = 20 */
(PID.TID 0000.0001)                 4.447098934081552E+05,      /* J = 21 */
(PID.TID 0000.0001)                 4.436266024588540E+05,      /* J = 22 */
(PID.TID 0000.0001)                 4.403820072955634E+05,      /* J = 23 */
(PID.TID 0000.0001)                 4.349919152597734E+05,      /* J = 24 */
(PID.TID 0000.0001)                 4.274825863380723E+05,      /* J = 25 */
(PID.TID 0000.0001)                 4.178906052261313E+05,      /* J = 26 */
(PID.TID 0000.0001)                 4.062627030917454E+05,      /* J = 27 */
(PID.TID 0000.0001)                 3.926555299052806E+05,      /* J = 28 */
(PID.TID 0000.0001)                 3.771353784467131E+05,      /* J = 29 */
(PID.TID 0000.0001)                 3.597778613338689E+05,      /* J = 30 */
(PID.TID 0000.0001)                 3.406675426453503E+05,      /* J = 31 */
(PID.TID 0000.0001)                 3.198975259328452E+05,      /* J = 32 */
(PID.TID 0000.0001)                 2.975690006299820E+05,      /* J = 33 */
(PID.TID 0000.0001)                 2.737907490675810E+05,      /* J = 34 */
(PID.TID 0000.0001)                 2.486786164970726E+05,      /* J = 35 */
(PID.TID 0000.0001)                 2.223549467040776E+05,      /* J = 36 */
(PID.TID 0000.0001)                 1.949479859617814E+05,      /* J = 37 */
(PID.TID 0000.0001)                 1.665912582279823E+05,      /* J = 38 */
(PID.TID 0000.0001)                 1.374229146297914E+05,      /* J = 39 */
(PID.TID 0000.0001)                 1.075850604052271E+05       /* J = 40 */
(PID.TID 0000.0001)     ;
(PID.TID 0000.0001) dyG =  /* dyG(:,1,:,1) ( m - cartesian, degrees - spherical ) */
(PID.TID 0000.0001)    90 @  4.447098934081552E+05              /* I =  1: 90 */
(PID.TID 0000.0001)     ;
(PID.TID 0000.0001) dyG =  /* dyG(1,:,1,:) ( m - cartesian, degrees - spherical ) */
(PID.TID 0000.0001)    40 @  4.447098934081552E+05              /* J =  1: 40 */
(PID.TID 0000.0001)     ;
(PID.TID 0000.0001) dxC =  /* dxC(:,1,:,1) ( m - cartesian, degrees - spherical ) */
(PID.TID 0000.0001)    90 @  9.246038586187513E+04              /* I =  1: 90 */
(PID.TID 0000.0001)     ;
(PID.TID 0000.0001) dxC =  /* dxC(1,:,1,:) ( m - cartesian, degrees - spherical ) */
(PID.TID 0000.0001)                 9.246038586187513E+04,      /* J =  1 */
(PID.TID 0000.0001)                 1.225786591246834E+05,      /* J =  2 */
(PID.TID 0000.0001)                 1.520997414818001E+05,      /* J =  3 */
(PID.TID 0000.0001)                 1.808798091874300E+05,      /* J =  4 */
(PID.TID 0000.0001)                 2.087786486446736E+05,      /* J =  5 */
(PID.TID 0000.0001)                 2.356603395120766E+05,      /* J =  6 */
(PID.TID 0000.0001)                 2.613939168938713E+05,      /* J =  7 */
(PID.TID 0000.0001)                 2.858540093877838E+05,      /* J =  8 */
(PID.TID 0000.0001)                 3.089214498819035E+05,      /* J =  9 */
(PID.TID 0000.0001)                 3.304838561248741E+05,      /* J = 10 */
(PID.TID 0000.0001)                 3.504361782409254E+05,      /* J = 11 */
(PID.TID 0000.0001)                 3.686812105223083E+05,      /* J = 12 */
(PID.TID 0000.0001)                 3.851300650057322E+05,      /* J = 13 */
(PID.TID 0000.0001)                 3.997026045255871E+05,      /* J = 14 */
(PID.TID 0000.0001)                 4.123278331341585E+05,      /* J = 15 */
(PID.TID 0000.0001)                 4.229442419867491E+05,      /* J = 16 */
(PID.TID 0000.0001)                 4.315001090065869E+05,      /* J = 17 */
(PID.TID 0000.0001)                 4.379537508695839E+05,      /* J = 18 */
(PID.TID 0000.0001)                 4.422737260813013E+05,      /* J = 19 */
(PID.TID 0000.0001)     2 @  4.444389881567501E+05,             /* J = 20: 21 */
(PID.TID 0000.0001)                 4.422737260813013E+05,      /* J = 22 */
(PID.TID 0000.0001)                 4.379537508695839E+05,      /* J = 23 */
(PID.TID 0000.0001)                 4.315001090065869E+05,      /* J = 24 */
(PID.TID 0000.0001)                 4.229442419867491E+05,      /* J = 25 */
(PID.TID 0000.0001)                 4.123278331341585E+05,      /* J = 26 */
(PID.TID 0000.0001)                 3.997026045255871E+05,      /* J = 27 */
(PID.TID 0000.0001)                 3.851300650057322E+05,      /* J = 28 */
(PID.TID 0000.0001)                 3.686812105223083E+05,      /* J = 29 */
(PID.TID 0000.0001)                 3.504361782409254E+05,      /* J = 30 */
(PID.TID 0000.0001)                 3.304838561248741E+05,      /* J = 31 */
(PID.TID 0000.0001)                 3.089214498819035E+05,      /* J = 32 */
(PID.TID 0000.0001)                 2.858540093877838E+05,      /* J = 33 */
(PID.TID 0000.0001)                 2.613939168938713E+05,      /* J = 34 */
(PID.TID 0000.0001)                 2.356603395120766E+05,      /* J = 35 */
(PID.TID 0000.0001)                 2.087786486446736E+05,      /* J = 36 */
(PID.TID 0000.0001)                 1.808798091874300E+05,      /* J = 37 */
(PID.TID 0000.0001)                 1.520997414818001E+05,      /* J = 38 */
(PID.TID 0000.0001)                 1.225786591246834E+05,      /* J = 39 */
(PID.TID 0000.0001)                 9.246038586187513E+04       /* J = 40 */
(PID.TID 0000.0001)     ;
(PID.TID 0000.0001) dyC =  /* dyC(:,1,:,1) ( m - cartesian, degrees - spherical ) */
(PID.TID 0000.0001)    90 @  4.447098934081552E+05              /* I =  1: 90 */
(PID.TID 0000.0001)     ;
(PID.TID 0000.0001) dyC =  /* dyC(1,:,1,:) ( m - cartesian, degrees - spherical ) */
(PID.TID 0000.0001)    40 @  4.447098934081552E+05              /* J =  1: 40 */
(PID.TID 0000.0001)     ;
(PID.TID 0000.0001) dxV =  /* dxV(:,1,:,1) ( m - cartesian, degrees - spherical ) */
(PID.TID 0000.0001)    90 @  7.722306258078101E+04              /* I =  1: 90 */
(PID.TID 0000.0001)     ;
(PID.TID 0000.0001) dxV =  /* dxV(1,:,1,:) ( m - cartesian, degrees - spherical ) */
(PID.TID 0000.0001)                 7.722306258078101E+04,      /* J =  1 */
(PID.TID 0000.0001)                 1.075850604052271E+05,      /* J =  2 */
(PID.TID 0000.0001)                 1.374229146297914E+05,      /* J =  3 */
(PID.TID 0000.0001)                 1.665912582279823E+05,      /* J =  4 */
(PID.TID 0000.0001)                 1.949479859617814E+05,      /* J =  5 */
(PID.TID 0000.0001)                 2.223549467040776E+05,      /* J =  6 */
(PID.TID 0000.0001)                 2.486786164970726E+05,      /* J =  7 */
(PID.TID 0000.0001)                 2.737907490675810E+05,      /* J =  8 */
(PID.TID 0000.0001)                 2.975690006299820E+05,      /* J =  9 */
(PID.TID 0000.0001)                 3.198975259328452E+05,      /* J = 10 */
(PID.TID 0000.0001)                 3.406675426453503E+05,      /* J = 11 */
(PID.TID 0000.0001)                 3.597778613338689E+05,      /* J = 12 */
(PID.TID 0000.0001)                 3.771353784467131E+05,      /* J = 13 */
(PID.TID 0000.0001)                 3.926555299052806E+05,      /* J = 14 */
(PID.TID 0000.0001)                 4.062627030917454E+05,      /* J = 15 */
(PID.TID 0000.0001)                 4.178906052261313E+05,      /* J = 16 */
(PID.TID 0000.0001)                 4.274825863380723E+05,      /* J = 17 */
(PID.TID 0000.0001)                 4.349919152597734E+05,      /* J = 18 */
(PID.TID 0000.0001)                 4.403820072955634E+05,      /* J = 19 */
(PID.TID 0000.0001)                 4.436266024588540E+05,      /* J = 20 */
(PID.TID 0000.0001)                 4.447098934081552E+05,      /* J = 21 */
(PID.TID 0000.0001)                 4.436266024588540E+05,      /* J = 22 */
(PID.TID 0000.0001)                 4.403820072955634E+05,      /* J = 23 */
(PID.TID 0000.0001)                 4.349919152597734E+05,      /* J = 24 */
(PID.TID 0000.0001)                 4.274825863380723E+05,      /* J = 25 */
(PID.TID 0000.0001)                 4.178906052261313E+05,      /* J = 26 */
(PID.TID 0000.0001)                 4.062627030917454E+05,      /* J = 27 */
(PID.TID 0000.0001)                 3.926555299052806E+05,      /* J = 28 */
(PID.TID 0000.0001)                 3.771353784467131E+05,      /* J = 29 */
(PID.TID 0000.0001)                 3.597778613338689E+05,      /* J = 30 */
(PID.TID 0000.0001)                 3.406675426453503E+05,      /* J = 31 */
(PID.TID 0000.0001)                 3.198975259328452E+05,      /* J = 32 */
(PID.TID 0000.0001)                 2.975690006299820E+05,      /* J = 33 */
(PID.TID 0000.0001)                 2.737907490675810E+05,      /* J = 34 */
(PID.TID 0000.0001)                 2.486786164970726E+05,      /* J = 35 */
(PID.TID 0000.0001)                 2.223549467040776E+05,      /* J = 36 */
(PID.TID 0000.0001)                 1.949479859617814E+05,      /* J = 37 */
(PID.TID 0000.0001)                 1.665912582279823E+05,      /* J = 38 */
(PID.TID 0000.0001)                 1.374229146297914E+05,      /* J = 39 */
(PID.TID 0000.0001)                 1.075850604052271E+05       /* J = 40 */
(PID.TID 0000.0001)     ;
(PID.TID 0000.0001) dyU =  /* dyU(:,1,:,1) ( m - cartesian, degrees - spherical ) */
(PID.TID 0000.0001)    90 @  4.447098934081552E+05              /* I =  1: 90 */
(PID.TID 0000.0001)     ;
(PID.TID 0000.0001) dyU =  /* dyU(1,:,1,:) ( m - cartesian, degrees - spherical ) */
(PID.TID 0000.0001)    40 @  4.447098934081552E+05              /* J =  1: 40 */
(PID.TID 0000.0001)     ;
(PID.TID 0000.0001) rA =  /* rA(:,1,:,1) ( m - cartesian, degrees - spherical ) */
(PID.TID 0000.0001)    90 @  4.110969866729054E+10              /* I =  1: 90 */
(PID.TID 0000.0001)     ;
(PID.TID 0000.0001) rA =  /* rA(1,:,1,:) ( m - cartesian, degrees - spherical ) */
(PID.TID 0000.0001)                 4.110969866729054E+10,      /* J =  1 */
(PID.TID 0000.0001)                 5.450087291636668E+10,      /* J =  2 */
(PID.TID 0000.0001)                 6.762652439100243E+10,      /* J =  3 */
(PID.TID 0000.0001)                 8.042270623659999E+10,      /* J =  4 */
(PID.TID 0000.0001)                 9.282707674147508E+10,      /* J =  5 */
(PID.TID 0000.0001)                 1.047792030594103E+11,      /* J =  6 */
(PID.TID 0000.0001)                 1.162208556324092E+11,      /* J =  7 */
(PID.TID 0000.0001)                 1.270962918792467E+11,      /* J =  8 */
(PID.TID 0000.0001)                 1.373525277677230E+11,      /* J =  9 */
(PID.TID 0000.0001)                 1.469395959475425E+11,      /* J = 10 */
(PID.TID 0000.0001)                 1.558107891862221E+11,      /* J = 11 */
(PID.TID 0000.0001)                 1.639228879220325E+11,      /* J = 12 */
(PID.TID 0000.0001)                 1.712363708253575E+11,      /* J = 13 */
(PID.TID 0000.0001)                 1.777156073426414E+11,      /* J = 14 */
(PID.TID 0000.0001)                 1.833290312848624E+11,      /* J = 15 */
(PID.TID 0000.0001)                 1.880492946148330E+11,      /* J = 16 */
(PID.TID 0000.0001)                 1.918534006840893E+11,      /* J = 17 */
(PID.TID 0000.0001)                 1.947228162702492E+11,      /* J = 18 */
(PID.TID 0000.0001)                 1.966435618690094E+11,      /* J = 19 */
(PID.TID 0000.0001)                 1.976062798008855E+11,      /* J = 20 */
(PID.TID 0000.0001)                 1.976062798008856E+11,      /* J = 21 */
(PID.TID 0000.0001)                 1.966435618690094E+11,      /* J = 22 */
(PID.TID 0000.0001)                 1.947228162702492E+11,      /* J = 23 */
(PID.TID 0000.0001)                 1.918534006840893E+11,      /* J = 24 */
(PID.TID 0000.0001)                 1.880492946148330E+11,      /* J = 25 */
(PID.TID 0000.0001)                 1.833290312848623E+11,      /* J = 26 */
(PID.TID 0000.0001)                 1.777156073426414E+11,      /* J = 27 */
(PID.TID 0000.0001)                 1.712363708253574E+11,      /* J = 28 */
(PID.TID 0000.0001)                 1.639228879220325E+11,      /* J = 29 */
(PID.TID 0000.0001)                 1.558107891862220E+11,      /* J = 30 */
(PID.TID 0000.0001)                 1.469395959475424E+11,      /* J = 31 */
(PID.TID 0000.0001)                 1.373525277677230E+11,      /* J = 32 */
(PID.TID 0000.0001)                 1.270962918792467E+11,      /* J = 33 */
(PID.TID 0000.0001)                 1.162208556324095E+11,      /* J = 34 */
(PID.TID 0000.0001)                 1.047792030594104E+11,      /* J = 35 */
(PID.TID 0000.0001)                 9.282707674147527E+10,      /* J = 36 */
(PID.TID 0000.0001)                 8.042270623660011E+10,      /* J = 37 */
(PID.TID 0000.0001)                 6.762652439100233E+10,      /* J = 38 */
(PID.TID 0000.0001)                 5.450087291636658E+10,      /* J = 39 */
(PID.TID 0000.0001)                 4.110969866729044E+10       /* J = 40 */
(PID.TID 0000.0001)     ;
(PID.TID 0000.0001) rAw =  /* rAw(:,1,:,1) ( m - cartesian, degrees - spherical ) */
(PID.TID 0000.0001)    90 @  4.110969866729054E+10              /* I =  1: 90 */
(PID.TID 0000.0001)     ;
(PID.TID 0000.0001) rAw =  /* rAw(1,:,1,:) ( m - cartesian, degrees - spherical ) */
(PID.TID 0000.0001)                 4.110969866729054E+10,      /* J =  1 */
(PID.TID 0000.0001)                 5.450087291636668E+10,      /* J =  2 */
(PID.TID 0000.0001)                 6.762652439100243E+10,      /* J =  3 */
(PID.TID 0000.0001)                 8.042270623659999E+10,      /* J =  4 */
(PID.TID 0000.0001)                 9.282707674147508E+10,      /* J =  5 */
(PID.TID 0000.0001)                 1.047792030594103E+11,      /* J =  6 */
(PID.TID 0000.0001)                 1.162208556324092E+11,      /* J =  7 */
(PID.TID 0000.0001)                 1.270962918792467E+11,      /* J =  8 */
(PID.TID 0000.0001)                 1.373525277677230E+11,      /* J =  9 */
(PID.TID 0000.0001)                 1.469395959475425E+11,      /* J = 10 */
(PID.TID 0000.0001)                 1.558107891862221E+11,      /* J = 11 */
(PID.TID 0000.0001)                 1.639228879220325E+11,      /* J = 12 */
(PID.TID 0000.0001)                 1.712363708253575E+11,      /* J = 13 */
(PID.TID 0000.0001)                 1.777156073426414E+11,      /* J = 14 */
(PID.TID 0000.0001)                 1.833290312848624E+11,      /* J = 15 */
(PID.TID 0000.0001)                 1.880492946148330E+11,      /* J = 16 */
(PID.TID 0000.0001)                 1.918534006840893E+11,      /* J = 17 */
(PID.TID 0000.0001)                 1.947228162702492E+11,      /* J = 18 */
(PID.TID 0000.0001)                 1.966435618690094E+11,      /* J = 19 */
(PID.TID 0000.0001)                 1.976062798008855E+11,      /* J = 20 */
(PID.TID 0000.0001)                 1.976062798008856E+11,      /* J = 21 */
(PID.TID 0000.0001)                 1.966435618690094E+11,      /* J = 22 */
(PID.TID 0000.0001)                 1.947228162702492E+11,      /* J = 23 */
(PID.TID 0000.0001)                 1.918534006840893E+11,      /* J = 24 */
(PID.TID 0000.0001)                 1.880492946148330E+11,      /* J = 25 */
(PID.TID 0000.0001)                 1.833290312848623E+11,      /* J = 26 */
(PID.TID 0000.0001)                 1.777156073426414E+11,      /* J = 27 */
(PID.TID 0000.0001)                 1.712363708253574E+11,      /* J = 28 */
(PID.TID 0000.0001)                 1.639228879220325E+11,      /* J = 29 */
(PID.TID 0000.0001)                 1.558107891862220E+11,      /* J = 30 */
(PID.TID 0000.0001)                 1.469395959475424E+11,      /* J = 31 */
(PID.TID 0000.0001)                 1.373525277677230E+11,      /* J = 32 */
(PID.TID 0000.0001)                 1.270962918792467E+11,      /* J = 33 */
(PID.TID 0000.0001)                 1.162208556324095E+11,      /* J = 34 */
(PID.TID 0000.0001)                 1.047792030594104E+11,      /* J = 35 */
(PID.TID 0000.0001)                 9.282707674147527E+10,      /* J = 36 */
(PID.TID 0000.0001)                 8.042270623660011E+10,      /* J = 37 */
(PID.TID 0000.0001)                 6.762652439100233E+10,      /* J = 38 */
(PID.TID 0000.0001)                 5.450087291636658E+10,      /* J = 39 */
(PID.TID 0000.0001)                 4.110969866729044E+10       /* J = 40 */
(PID.TID 0000.0001)     ;
(PID.TID 0000.0001) rAs =  /* rAs(:,1,:,1) ( m - cartesian, degrees - spherical ) */
(PID.TID 0000.0001)    90 @  3.433488626798236E+10              /* I =  1: 90 */
(PID.TID 0000.0001)     ;
(PID.TID 0000.0001) rAs =  /* rAs(1,:,1,:) ( m - cartesian, degrees - spherical ) */
(PID.TID 0000.0001)                 3.433488626798236E+10,      /* J =  1 */
(PID.TID 0000.0001)                 4.783442523123635E+10,      /* J =  2 */
(PID.TID 0000.0001)                 6.110091968306405E+10,      /* J =  3 */
(PID.TID 0000.0001)                 7.406973659603827E+10,      /* J =  4 */
(PID.TID 0000.0001)                 8.667769319778091E+10,      /* J =  5 */
(PID.TID 0000.0001)                 9.886336479107472E+10,      /* J =  6 */
(PID.TID 0000.0001)                 1.105673840088174E+11,      /* J =  7 */
(PID.TID 0000.0001)                 1.217327300458637E+11,      /* J =  8 */
(PID.TID 0000.0001)                 1.323050064586579E+11,      /* J =  9 */
(PID.TID 0000.0001)                 1.422327061792379E+11,      /* J = 10 */
(PID.TID 0000.0001)                 1.514674624524945E+11,      /* J = 11 */
(PID.TID 0000.0001)                 1.599642844741385E+11,      /* J = 12 */
(PID.TID 0000.0001)                 1.676817765813787E+11,      /* J = 13 */
(PID.TID 0000.0001)                 1.745823399284268E+11,      /* J = 14 */
(PID.TID 0000.0001)                 1.806323556642997E+11,      /* J = 15 */
(PID.TID 0000.0001)                 1.858023487204767E+11,      /* J = 16 */
(PID.TID 0000.0001)                 1.900671314104744E+11,      /* J = 17 */
(PID.TID 0000.0001)                 1.934059261417216E+11,      /* J = 18 */
(PID.TID 0000.0001)                 1.958024666419019E+11,      /* J = 19 */
(PID.TID 0000.0001)                 1.972450772065981E+11,      /* J = 20 */
(PID.TID 0000.0001)                 1.977267295821495E+11,      /* J = 21 */
(PID.TID 0000.0001)                 1.972450772065981E+11,      /* J = 22 */
(PID.TID 0000.0001)                 1.958024666419019E+11,      /* J = 23 */
(PID.TID 0000.0001)                 1.934059261417216E+11,      /* J = 24 */
(PID.TID 0000.0001)                 1.900671314104744E+11,      /* J = 25 */
(PID.TID 0000.0001)                 1.858023487204767E+11,      /* J = 26 */
(PID.TID 0000.0001)                 1.806323556642997E+11,      /* J = 27 */
(PID.TID 0000.0001)                 1.745823399284267E+11,      /* J = 28 */
(PID.TID 0000.0001)                 1.676817765813788E+11,      /* J = 29 */
(PID.TID 0000.0001)                 1.599642844741386E+11,      /* J = 30 */
(PID.TID 0000.0001)                 1.514674624524945E+11,      /* J = 31 */
(PID.TID 0000.0001)                 1.422327061792377E+11,      /* J = 32 */
(PID.TID 0000.0001)                 1.323050064586577E+11,      /* J = 33 */
(PID.TID 0000.0001)                 1.217327300458638E+11,      /* J = 34 */
(PID.TID 0000.0001)                 1.105673840088174E+11,      /* J = 35 */
(PID.TID 0000.0001)                 9.886336479107451E+10,      /* J = 36 */
(PID.TID 0000.0001)                 8.667769319778070E+10,      /* J = 37 */
(PID.TID 0000.0001)                 7.406973659603806E+10,      /* J = 38 */
(PID.TID 0000.0001)                 6.110091968306404E+10,      /* J = 39 */
(PID.TID 0000.0001)                 4.783442523123634E+10       /* J = 40 */
(PID.TID 0000.0001)     ;
(PID.TID 0000.0001) 
(PID.TID 0000.0001)  MDSREADFIELD: opening global file: lev_t.bin
(PID.TID 0000.0001) // =======================================================
(PID.TID 0000.0001) // Field Initial Temperature at iteration          1
(PID.TID 0000.0001) // CMIN =         -1.899999976158142E+00
(PID.TID 0000.0001) // CMAX =          2.973338890075684E+01
(PID.TID 0000.0001) // CINT =          1.171606995441296E+00
(PID.TID 0000.0001) // SYMBOLS (CMIN->CMAX): -abcdefghijklmnopqrstuvwxyz+
(PID.TID 0000.0001) //                  0.0: .
(PID.TID 0000.0001) // RANGE I (Lo:Hi:Step):(   1:  90:   1)
(PID.TID 0000.0001) // RANGE J (Lo:Hi:Step):(  40:   1:  -1)
(PID.TID 0000.0001) // RANGE K (Lo:Hi:Step):(   1:   1:   1)
(PID.TID 0000.0001) // =======================================================
(PID.TID 0000.0001) K =   1
(PID.TID 0000.0001)                I=10      I=20      I=30      I=40      I=50      I=60      I=70      I=80      I=90
(PID.TID 0000.0001) |--J--|123456789|123456789|123456789|123456789|123456789|123456789|123456789|123456789|123456789|
(PID.TID 0000.0001)     40 bccdd.baa----abdedd..................................................................bbbbb
(PID.TID 0000.0001)     39 ccdddddccbbbaa...ed.....................................................----........bbbbbb
(PID.TID 0000.0001)     38 fffgfedeedddc...........................................................-----......cbbbcde
(PID.TID 0000.0001)     37 ghh..................................................................bc...bbc...edeed.defg
(PID.TID 0000.0001)     36 hh.........................................ddcb....................dcccbabccdd.eefghhihhih
(PID.TID 0000.0001)     35 hh.................................aaab..dddeddd...ffggg...........ccc....ddeeeffghijjjjih
(PID.TID 0000.0001)     34 ...................................babb.deeeeeee.ffffgghh..................ccdffghijkkkj..
(PID.TID 0000.0001)     33 ....................................accdddeeeeefffffgghhiii.................bcfijkkllllkk.
(PID.TID 0000.0001)     32 ....................................bdddeffgffgghhhhhiiijjj................dccglmnmmmmlll.
(PID.TID 0000.0001)     31 ....................................fghiiiijjjjjjkkkkklllkk..............ikkjjmooooonnmm..
(PID.TID 0000.0001)     30 ...................................mmmnmmmmmmmmmmmmmnnnnnmm............moqrrrqrqqqpppooo..
(PID.TID 0000.0001)     29 .................................pqqqqqpppppppppoppoppppponm...........ssssssrrrrrqqqqpp..
(PID.TID 0000.0001)     28 ...............................prssssrrrsssrrrrrrrrrrrrrqqpoo.........uttssstssrssrrrqqq..
(PID.TID 0000.0001)     27 ..............vv..............stuttuuuuutuuuuuuuuuuttttssrrqqq...stuu.vvvuuuuutttttsss....
(PID.TID 0000.0001)     26 ..............vvv...........uuvvvvvwwwwwwwwvvvvvvvvvuuutttsssttv.uuvxxwwwwwwvvvvuuttsr....
(PID.TID 0000.0001)     25 ..............wwwx...xxx...vvvxxxxxyyxxxxxxxxxwwwwwvvvvvuuuuuvwwx...xxxxxxwwwwwwvvutsr....
(PID.TID 0000.0001)     24 ............wwwwxyy.xxyy...wxx.yyyyyyyyyyyxxxxxxxxwwwwwwwvvwwxxyywww.xxxxxxxxxxwwwvvur....
(PID.TID 0000.0001)     23 ............xxxyyyz.xyyy...xxx..yyyyzzyyyyyyyyxxxxxxxxxwwwwwxxxwwwwwx....vwxxxxwwwwwvu....
(PID.TID 0000.0001)     22 w...........xxyyyzyyyyyz...xx.yyzzzzzzzzzzzzzyyzyyyyyyxxwwxxxxwvvvwwxw......yyyyxxxxxxwxxw
(PID.TID 0000.0001)     21 xxx........xxxxyyzzzzzzz+.....zyzzzzzzz++zzzzyyyyyyyyxxwvvwwwwvvvvvvvu........yyyyyyyyyxxx
(PID.TID 0000.0001)     20 xww.......xyyyyxyyzzzzzz+......z.zzzzz+++zzzzzzyyyyyxxxxwvwxwvuuuuuuut.........yyyyxxxxwww
(PID.TID 0000.0001)     19 vvv.......yyyyxwwxyzyyzzzzz...zzz.....++++++z++z+zzzyyyyxxxxwwvvvvvvvu...........yyxxxwwww
(PID.TID 0000.0001)     18 uut.......zzyyywwxyzyyyyzzyzzzzzz...z+z++++zz+++++++zzzyyyyxxwwwvvvvvtt..........yyxxwvvwv
(PID.TID 0000.0001)     17 uus.......z.yyyyyyxyzzyyyyyyyzz.....yzzzzzzzzzzzzzzzzzzyyyyxxwwvuuvvuut.........yyyxxwttvu
(PID.TID 0000.0001)     16 utr......yy.zyyyyxxxxxxxwxxxxy.......yyyyyyyyyyyyyyyyyyyyyyyxxwvvvuuutts........xyyyxwvuuu
(PID.TID 0000.0001)     15 ttrr....xxx.xxxwxwwwwvwwvvvww.........xwxxxxxxxxxxxxxxxxxyyyxwwwvvuttssrr......wxxxxxwwvuu
(PID.TID 0000.0001)     14 ttsq....xyxwwxwvwwwvutuuuuuuu.........wwvwwwwvwvvwwwvwvvwwwwwwvvvuuutssrr.....vwwwwwwwvvvu
(PID.TID 0000.0001)     13 tttr....wwwvvvtttuuuutttssttt.........vvvuuuuuuutttttuuuuuvwwwuuuttttssrr....uvvvvvvvvvvut
(PID.TID 0000.0001)     12 sssssstttutssssrrrrrstrqqrrssqqrrq....uuttssssrrrrrrrrrrrstttssssrssrrqp.....uuuttssttssss
(PID.TID 0000.0001)     11 poprsssrqqqqqrqppooopqpoppppppppppp..sssrrr.rqpppqqqqppppqqqoppqqqqrqqpp....prsrqqqqqppppq
(PID.TID 0000.0001)     10 lllmoooonmnnmnnnnmmmmmmlmmlllmnnnnon.qqqppp.ppppppooooooooonmnnnonnooooo..nmoponnmnnnnnmll
(PID.TID 0000.0001)      9 ihhiiiihhhhhhiiihiiiiihhhiiiijjkkmnllnnnnn.mmmmnnnnmmmmnnmmlklllllklllll.mllmmllkjiijjihhi
(PID.TID 0000.0001)      8 eeeeeeeedefgggffeeffggffffggghiiiijjijklklkkkkkkkklllkkkkjjiiijkjjjjjjkj.kkjjiihggffffedde
(PID.TID 0000.0001)      7 cccccddeedddefeddddddddddefeefffffgggghiiiiiijjjihhgggghhhhhghhhhhhhiiiihiihhgfeddddddcccc
(PID.TID 0000.0001)      6 abbcccddcccccdddddccdddddddccddddddeeeeffggggghhgeddddddeeeeeeefggggghggggffeedccbbbbbbbba
(PID.TID 0000.0001)      5 bbbcccccccccccccccccccccbbccccdddddddcccddeeddeedcbbbbbbccccccdddeeeeeddddddccbbbbaaaaaaab
(PID.TID 0000.0001)      4 bbbbbbbaaabbbbbbbbbbbbaabbabbbbcbbbbbbbbbbbbbbbbbbbabbaaabbbbbbbbbbbbbbbbb..a--aaabbbaaabb
(PID.TID 0000.0001)      3 bbbbaaa-a-............................bbaaaaaaaaaaaaaaaaaaaaaaaaaaaaaaaab..aaaaaaaabbbaaaa
(PID.TID 0000.0001)      2 ..........................................baaaaaaaaaaaa-------aa..aaaa.....aaaaaaaaaaaa...
(PID.TID 0000.0001)      1 ..........................................................................................
(PID.TID 0000.0001) // =======================================================
(PID.TID 0000.0001) // END OF FIELD                                          =
(PID.TID 0000.0001) // =======================================================
(PID.TID 0000.0001) 
(PID.TID 0000.0001)  MDSREADFIELD: opening global file: lev_s.bin
(PID.TID 0000.0001) // =======================================================
(PID.TID 0000.0001) // Field Initial Salinity at iteration          1
(PID.TID 0000.0001) // CMIN =          2.975276947021484E+01
(PID.TID 0000.0001) // CMAX =          3.747562789916992E+01
(PID.TID 0000.0001) // CINT =          2.860317936650029E-01
(PID.TID 0000.0001) // SYMBOLS (CMIN->CMAX): -abcdefghijklmnopqrstuvwxyz+
(PID.TID 0000.0001) //                  0.0: .
(PID.TID 0000.0001) // RANGE I (Lo:Hi:Step):(   1:  90:   1)
(PID.TID 0000.0001) // RANGE J (Lo:Hi:Step):(  40:   1:  -1)
(PID.TID 0000.0001) // RANGE K (Lo:Hi:Step):(   1:   1:   1)
(PID.TID 0000.0001) // =======================================================
(PID.TID 0000.0001) K =   1
(PID.TID 0000.0001)                I=10      I=20      I=30      I=40      I=50      I=60      I=70      I=80      I=90
(PID.TID 0000.0001) |--J--|123456789|123456789|123456789|123456789|123456789|123456789|123456789|123456789|123456789|
(PID.TID 0000.0001)     40 qrrrr.oonnooopqtutt..................................................................mnnop
(PID.TID 0000.0001)     39 rssrrrrrrrqqpn...ut.....................................................mmmm........opqqqr
(PID.TID 0000.0001)     38 ssrrqqqqrrqpo...........................................................lkkll......onoqrrs
(PID.TID 0000.0001)     37 ssr..................................................................hg...lln...qppqr.rrrs
(PID.TID 0000.0001)     36 rr.........................................lkji....................feeegikmoop.pqrssssssss
(PID.TID 0000.0001)     35 rr.................................kkkk..lllllki...jijjj...........aa-....opqrrrrrrrssttss
(PID.TID 0000.0001)     34 ...................................jlll.kklllllk.ijkkkjih..................hlpqrqrrsstts..
(PID.TID 0000.0001)     33 ....................................iklkkkkkkkkkjkkjjjjjjii.................jmprrsstttttt.
(PID.TID 0000.0001)     32 ....................................iklllkllllllllkkkkkkkji................gilpstuuttuuut.
(PID.TID 0000.0001)     31 ....................................lmnonnnnoooonnmmmmllkjj..............loopqtvvvuuuuuu..
(PID.TID 0000.0001)     30 ...................................pppppppqqqqpppoooonnmlkk............ptvxwwvvwvvvvvvvu..
(PID.TID 0000.0001)     29 .................................pqqrqqqqqqrrrqqppqqqpponmll...........vxxxxxxwwwwwxwwxw..
(PID.TID 0000.0001)     28 ...............................prrrrrqqrrrrrsrrsrssssssrqonmm.........wxxxxxxxyyyyyyyyxx..
(PID.TID 0000.0001)     27 ..............xx..............prrrrrrrrrssssssstttssssssrqpoop...uwww.wwxxxyyy++zzzzyy....
(PID.TID 0000.0001)     26 ..............wxx...........ppqrrrrrrsssrrstsstttssrrrrrrrqppqqp.wwwvvwwwwwxyy+++zzyxw....
(PID.TID 0000.0001)     25 ..............wxxv...kkk...ooopqrrrrrssrrrrrrrssssqqpppppppppppoo...vvutuuvvwxyyyxxvvu....
(PID.TID 0000.0001)     24 ............uvvwwur.lmlk...nmm.pqqqqrrrrrqqqqrrqqrpppppooooonmmmnooo.uuuuuuttuvvvuvuut....
(PID.TID 0000.0001)     23 ............vvuvtqp.lmml...mln..ppppqpqppppppqpppppppppqppponnnnnoopm....xvuuuvvvvuuut....
(PID.TID 0000.0001)     22 r...........vuttsqqpnppn...mm.oppqqrrqqqqqqppppqqrrrqqqrrppppoopooomjj......uuvvvvvuttssrr
(PID.TID 0000.0001)     21 qmm........ttsssssssrsqon.....opqqqqqqqrrrrqqqssssssrrrrrrrrpqqqppomll........tvvvvuttssrr
(PID.TID 0000.0001)     20 sqq.......sttssrrsrrrrpol......p.qrqpqrrrrrrrstttttsssrrsssrqrrrrqqqpo.........wwwvvvuuutt
(PID.TID 0000.0001)     19 tsr.......ssssrrrrpppppnmmm...oqq.....qrqqsrrstttuuuttssttssrrssrrrrqq...........wwwvuvvvv
(PID.TID 0000.0001)     18 wut.......ssrrrrrqppppppppoooorrr...poqqqprrrttttuuutuuuuuutttttttutsss..........yyxwwxwxx
(PID.TID 0000.0001)     17 wwu.......s.rrrrrrqppppqqqqqqqr.....rrsrqrsssuusrtuuuvvvwwvvvuuuuutttss.........xyzyyyyxxx
(PID.TID 0000.0001)     16 vvt......ss.qrrssrqrqpqrrrrrrr.......ssrrstsstusrsuuuvwwwwxxwwvvvuttttsr........yz+zzzxwww
(PID.TID 0000.0001)     15 utss....stt.rrssstttsrrsrstsr.........ssstttssttsuuttuvvvvwxwwwwwuttsssrr......xyyyyxyyxwv
(PID.TID 0000.0001)     14 utts....sstrrssstuuuuuuuuuutt.........stttuutttttttuttttttuvvvvvvutsrqrrr.....vxxwwwwxwvwv
(PID.TID 0000.0001)     13 uuut....ttttttttuuuuuvtuuuuuu.........ttttuutttttttuutsssstttttstsqrqqppp....uwwwvuvvvutvv
(PID.TID 0000.0001)     12 ttttttttttttttttttttttssuuuuutuuut....tttttttttttsssssrrrrrrrqqqqqppppoo.....rvvuuttttttuu
(PID.TID 0000.0001)     11 rqsttttttttuuttttsssssrrstttttttsss..ttttts.tsssrrrrqqqqqppppoonnooooooo....oruttttsssrqrs
(PID.TID 0000.0001)     10 pppqrssrqqrqpqrssrrqqqqqqrrrrrrrrrrs.sssssr.rssrrqqpppppppooooonnnoooonn..moqrrrqqqqqqqqqq
(PID.TID 0000.0001)      9 oonooooooooonnnooooooooooppppppqqqqqrrrqrq.pppqqqqqppppppppppoooooooooll.lmoqqqqppooooopoo
(PID.TID 0000.0001)      8 nnnoonooooooonnnnnnnoooonoonoooppopqqqqqqqppopppqqqpppppppppppppppooopon.lnopppoooonnnnooo
(PID.TID 0000.0001)      7 ooooooooooopponnnooooooonnnnnonnooooooooopppppppoooooooooopppppppppoopqnnmnoooonnnonnnnnno
(PID.TID 0000.0001)      6 oooonnoonnnnooooooooooooonnnnnnnnnnnnnnnnoooopppooooooooooooooppppppppppoooooooonnnnnmnnnn
(PID.TID 0000.0001)      5 oooonnnnnnnnnnnnnnnnnoooooonnnnnnonnnnnnnnnoooooooooooonnnnnnooooooopoooonoooonnnnnnnooooo
(PID.TID 0000.0001)      4 oooonnnooonnnnnnnnnnnnnnoooooonnnooooonnnooooooooppponnnnmmmnnnnmnnoonnnnn..nnnooooooooooo
(PID.TID 0000.0001)      3 ooonnnnnnn............................nnoooooonnooooonnnnnnnoonnnnnnnnmmm..ooopooooooooooo
(PID.TID 0000.0001)      2 ..........................................pppooooonnnnnnoooppppo..nnnn.....qqqpppoooooo...
(PID.TID 0000.0001)      1 ..........................................................................................
(PID.TID 0000.0001) // =======================================================
(PID.TID 0000.0001) // END OF FIELD                                          =
(PID.TID 0000.0001) // =======================================================
(PID.TID 0000.0001) 
(PID.TID 0000.0001) Start initial hydrostatic pressure computation
(PID.TID 0000.0001) Pressure is predetermined for buoyancyRelation OCEANIC
(PID.TID 0000.0001) 
(PID.TID 0000.0001) // =======================================================
(PID.TID 0000.0001) // Model current state
(PID.TID 0000.0001) // =======================================================
(PID.TID 0000.0001) 
(PID.TID 0000.0001) // =======================================================
(PID.TID 0000.0001) // Begin MONITOR dynamic field statistics
(PID.TID 0000.0001) // =======================================================
(PID.TID 0000.0001) %MON time_tsnumber                =                     0
(PID.TID 0000.0001) %MON time_secondsf                =   0.0000000000000E+00
(PID.TID 0000.0001) %MON dynstat_eta_max              =   0.0000000000000E+00
(PID.TID 0000.0001) %MON dynstat_eta_min              =   0.0000000000000E+00
(PID.TID 0000.0001) %MON dynstat_eta_mean             =   0.0000000000000E+00
(PID.TID 0000.0001) %MON dynstat_eta_sd               =   0.0000000000000E+00
(PID.TID 0000.0001) %MON dynstat_eta_del2             =   0.0000000000000E+00
(PID.TID 0000.0001) %MON dynstat_uvel_max             =   0.0000000000000E+00
(PID.TID 0000.0001) %MON dynstat_uvel_min             =   0.0000000000000E+00
(PID.TID 0000.0001) %MON dynstat_uvel_mean            =   0.0000000000000E+00
(PID.TID 0000.0001) %MON dynstat_uvel_sd              =   0.0000000000000E+00
(PID.TID 0000.0001) %MON dynstat_uvel_del2            =   0.0000000000000E+00
(PID.TID 0000.0001) %MON dynstat_vvel_max             =   0.0000000000000E+00
(PID.TID 0000.0001) %MON dynstat_vvel_min             =   0.0000000000000E+00
(PID.TID 0000.0001) %MON dynstat_vvel_mean            =   0.0000000000000E+00
(PID.TID 0000.0001) %MON dynstat_vvel_sd              =   0.0000000000000E+00
(PID.TID 0000.0001) %MON dynstat_vvel_del2            =   0.0000000000000E+00
(PID.TID 0000.0001) %MON dynstat_wvel_max             =   0.0000000000000E+00
(PID.TID 0000.0001) %MON dynstat_wvel_min             =   0.0000000000000E+00
(PID.TID 0000.0001) %MON dynstat_wvel_mean            =   0.0000000000000E+00
(PID.TID 0000.0001) %MON dynstat_wvel_sd              =   0.0000000000000E+00
(PID.TID 0000.0001) %MON dynstat_wvel_del2            =   0.0000000000000E+00
(PID.TID 0000.0001) %MON dynstat_theta_max            =   2.9733388900757E+01
(PID.TID 0000.0001) %MON dynstat_theta_min            =  -1.8999999761581E+00
(PID.TID 0000.0001) %MON dynstat_theta_mean           =   3.6197074666147E+00
(PID.TID 0000.0001) %MON dynstat_theta_sd             =   4.4174614518546E+00
(PID.TID 0000.0001) %MON dynstat_theta_del2           =   1.5097301765945E-01
(PID.TID 0000.0001) %MON dynstat_salt_max             =   3.7475627899170E+01
(PID.TID 0000.0001) %MON dynstat_salt_min             =   2.9752769470215E+01
(PID.TID 0000.0001) %MON dynstat_salt_mean            =   3.4718006161475E+01
(PID.TID 0000.0001) %MON dynstat_salt_sd              =   2.9628819587990E-01
(PID.TID 0000.0001) %MON dynstat_salt_del2            =   2.6251884861846E-02
(PID.TID 0000.0001) %MON advcfl_uvel_max              =   0.0000000000000E+00
(PID.TID 0000.0001) %MON advcfl_vvel_max              =   0.0000000000000E+00
(PID.TID 0000.0001) %MON advcfl_wvel_max              =   0.0000000000000E+00
(PID.TID 0000.0001) %MON advcfl_W_hf_max              =   0.0000000000000E+00
(PID.TID 0000.0001) %MON pe_b_mean                    =   0.0000000000000E+00
(PID.TID 0000.0001) %MON ke_max                       =   0.0000000000000E+00
(PID.TID 0000.0001) %MON ke_mean                      =   0.0000000000000E+00
(PID.TID 0000.0001) %MON ke_vol                       =   1.3226782436723E+18
(PID.TID 0000.0001) %MON vort_r_min                   =   0.0000000000000E+00
(PID.TID 0000.0001) %MON vort_r_max                   =   0.0000000000000E+00
(PID.TID 0000.0001) %MON vort_a_mean                  =  -2.5205769728596E-05
(PID.TID 0000.0001) %MON vort_a_sd                    =   7.3403301351717E-05
(PID.TID 0000.0001) %MON vort_p_mean                  =  -3.1758669979760E-05
(PID.TID 0000.0001) %MON vort_p_sd                    =   1.3126616755304E-04
(PID.TID 0000.0001) %MON surfExpan_theta_mean         =   0.0000000000000E+00
(PID.TID 0000.0001) %MON surfExpan_salt_mean          =   0.0000000000000E+00
(PID.TID 0000.0001) // =======================================================
(PID.TID 0000.0001) // End MONITOR dynamic field statistics
(PID.TID 0000.0001) // =======================================================
(PID.TID 0000.0001) 
(PID.TID 0000.0001)  exf_GetFFieldsRec: first, changed, fac:   T   F   0.10000000E+01
(PID.TID 0000.0001)  exf_GetFFieldsRec:      count0, count1:   1   2
(PID.TID 0000.0001) 
(PID.TID 0000.0001) 
(PID.TID 0000.0001)  exf_GetFFieldsRec: first, changed, fac:   T   F   0.10000000E+01
(PID.TID 0000.0001)  exf_GetFFieldsRec:      count0, count1:   1   2
(PID.TID 0000.0001) 
(PID.TID 0000.0001) 
(PID.TID 0000.0001)  exf_GetFFieldsRec: first, changed, fac:   T   F   0.10000000E+01
(PID.TID 0000.0001)  exf_GetFFieldsRec:      count0, count1:   1   2
(PID.TID 0000.0001) 
(PID.TID 0000.0001) 
(PID.TID 0000.0001)  exf_GetFFieldsRec: first, changed, fac:   T   F   0.10000000E+01
(PID.TID 0000.0001)  exf_GetFFieldsRec:      count0, count1:   1   2
(PID.TID 0000.0001) 
(PID.TID 0000.0001) 
(PID.TID 0000.0001)  exf_GetFFieldsRec: first, changed, fac:   T   F   0.10000000E+01
(PID.TID 0000.0001)  exf_GetFFieldsRec:      count0, count1:   1   2
(PID.TID 0000.0001) 
 cg2d: Sum(rhs),rhsMax =   1.20479255912020E-15  2.53365408187830E+00
(PID.TID 0000.0001)                    cg2d_init_res =    6.22514368731617E+00
(PID.TID 0000.0001)                       cg2d_iters =    26
(PID.TID 0000.0001)                         cg2d_res =    5.02276870411138E-14
(PID.TID 0000.0001) // =======================================================
(PID.TID 0000.0001) // Begin MONITOR dynamic field statistics
(PID.TID 0000.0001) // =======================================================
(PID.TID 0000.0001) %MON time_tsnumber                =                     1
(PID.TID 0000.0001) %MON time_secondsf                =   4.3200000000000E+04
(PID.TID 0000.0001) %MON dynstat_eta_max              =   1.7857031213648E-01
(PID.TID 0000.0001) %MON dynstat_eta_min              =  -1.1515073571114E-01
(PID.TID 0000.0001) %MON dynstat_eta_mean             =  -1.0188125072375E-17
(PID.TID 0000.0001) %MON dynstat_eta_sd               =   2.6329908814575E-02
(PID.TID 0000.0001) %MON dynstat_eta_del2             =   1.1668625829462E-02
(PID.TID 0000.0001) %MON dynstat_uvel_max             =   8.0706589695178E-03
(PID.TID 0000.0001) %MON dynstat_uvel_min             =  -8.9103163041090E-03
(PID.TID 0000.0001) %MON dynstat_uvel_mean            =  -3.6109801537250E-04
(PID.TID 0000.0001) %MON dynstat_uvel_sd              =   1.2332925373946E-03
(PID.TID 0000.0001) %MON dynstat_uvel_del2            =   4.2141269649426E-04
(PID.TID 0000.0001) %MON dynstat_vvel_max             =   1.8795028014898E-02
(PID.TID 0000.0001) %MON dynstat_vvel_min             =  -1.1292840369021E-02
(PID.TID 0000.0001) %MON dynstat_vvel_mean            =   9.2394802151645E-04
(PID.TID 0000.0001) %MON dynstat_vvel_sd              =   3.4435702970705E-03
(PID.TID 0000.0001) %MON dynstat_vvel_del2            =   5.2688535359212E-04
(PID.TID 0000.0001) %MON dynstat_wvel_max             =   1.5979309827802E-04
(PID.TID 0000.0001) %MON dynstat_wvel_min             =  -1.0324767469182E-04
(PID.TID 0000.0001) %MON dynstat_wvel_mean            =  -2.2079005249705E-22
(PID.TID 0000.0001) %MON dynstat_wvel_sd              =   1.6851601793321E-05
(PID.TID 0000.0001) %MON dynstat_wvel_del2            =   8.8303731816028E-06
(PID.TID 0000.0001) %MON dynstat_theta_max            =   2.9741474816594E+01
(PID.TID 0000.0001) %MON dynstat_theta_min            =  -1.9041515269206E+00
(PID.TID 0000.0001) %MON dynstat_theta_mean           =   3.6197524851167E+00
(PID.TID 0000.0001) %MON dynstat_theta_sd             =   4.4172107032628E+00
(PID.TID 0000.0001) %MON dynstat_theta_del2           =   1.5244439219278E-01
(PID.TID 0000.0001) %MON dynstat_salt_max             =   3.7470580662447E+01
(PID.TID 0000.0001) %MON dynstat_salt_min             =   2.9754445925786E+01
(PID.TID 0000.0001) %MON dynstat_salt_mean            =   3.4718006161475E+01
(PID.TID 0000.0001) %MON dynstat_salt_sd              =   2.9615385384372E-01
(PID.TID 0000.0001) %MON dynstat_salt_del2            =   2.6480780025902E-02
(PID.TID 0000.0001) %MON advcfl_uvel_max              =   2.6531531284146E-03
(PID.TID 0000.0001) %MON advcfl_vvel_max              =   1.8257862536429E-03
(PID.TID 0000.0001) %MON advcfl_wvel_max              =   2.5714124947653E-01
(PID.TID 0000.0001) %MON advcfl_W_hf_max              =   2.6084756609923E-01
(PID.TID 0000.0001) %MON pe_b_mean                    =   8.8711497471051E-07
(PID.TID 0000.0001) %MON ke_max                       =   1.2389770046291E-04
(PID.TID 0000.0001) %MON ke_mean                      =   6.4571666583028E-06
(PID.TID 0000.0001) %MON ke_vol                       =   1.3226782436723E+18
(PID.TID 0000.0001) %MON vort_r_min                   =  -5.9902221714378E-08
(PID.TID 0000.0001) %MON vort_r_max                   =   6.7787900446458E-08
(PID.TID 0000.0001) %MON vort_a_mean                  =  -2.5205769406276E-05
(PID.TID 0000.0001) %MON vort_a_sd                    =   7.3403223008744E-05
(PID.TID 0000.0001) %MON vort_p_mean                  =  -3.1758669573645E-05
(PID.TID 0000.0001) %MON vort_p_sd                    =   1.3126608054067E-04
(PID.TID 0000.0001) %MON surfExpan_theta_mean         =   4.7010849060827E-05
(PID.TID 0000.0001) %MON surfExpan_salt_mean          =   3.5330085255035E-06
(PID.TID 0000.0001) // =======================================================
(PID.TID 0000.0001) // End MONITOR dynamic field statistics
(PID.TID 0000.0001) // =======================================================
(PID.TID 0000.0001) 
(PID.TID 0000.0001)  exf_GetFFieldsRec: first, changed, fac:   F   F   0.98333333E+00
(PID.TID 0000.0001)  exf_GetFFieldsRec:      count0, count1:   1   2
(PID.TID 0000.0001) 
(PID.TID 0000.0001) 
(PID.TID 0000.0001)  exf_GetFFieldsRec: first, changed, fac:   F   F   0.98333333E+00
(PID.TID 0000.0001)  exf_GetFFieldsRec:      count0, count1:   1   2
(PID.TID 0000.0001) 
(PID.TID 0000.0001) 
(PID.TID 0000.0001)  exf_GetFFieldsRec: first, changed, fac:   F   F   0.98333333E+00
(PID.TID 0000.0001)  exf_GetFFieldsRec:      count0, count1:   1   2
(PID.TID 0000.0001) 
(PID.TID 0000.0001) 
(PID.TID 0000.0001)  exf_GetFFieldsRec: first, changed, fac:   F   F   0.98333333E+00
(PID.TID 0000.0001)  exf_GetFFieldsRec:      count0, count1:   1   2
(PID.TID 0000.0001) 
(PID.TID 0000.0001) 
(PID.TID 0000.0001)  exf_GetFFieldsRec: first, changed, fac:   F   F   0.98333333E+00
(PID.TID 0000.0001)  exf_GetFFieldsRec:      count0, count1:   1   2
(PID.TID 0000.0001) 
 cg2d: Sum(rhs),rhsMax =   4.32113451465967E-14  5.05291200497172E+00
(PID.TID 0000.0001)                    cg2d_init_res =    3.39003980867708E+00
(PID.TID 0000.0001)                       cg2d_iters =    26
(PID.TID 0000.0001)                         cg2d_res =    3.26828993805715E-14
(PID.TID 0000.0001) // =======================================================
(PID.TID 0000.0001) // Begin MONITOR dynamic field statistics
(PID.TID 0000.0001) // =======================================================
(PID.TID 0000.0001) %MON time_tsnumber                =                     2
(PID.TID 0000.0001) %MON time_secondsf                =   8.6400000000000E+04
(PID.TID 0000.0001) %MON dynstat_eta_max              =   3.7996766714661E-01
(PID.TID 0000.0001) %MON dynstat_eta_min              =  -2.5461426471848E-01
(PID.TID 0000.0001) %MON dynstat_eta_mean             =  -3.5396155169261E-17
(PID.TID 0000.0001) %MON dynstat_eta_sd               =   6.0827279941479E-02
(PID.TID 0000.0001) %MON dynstat_eta_del2             =   2.2750965203405E-02
(PID.TID 0000.0001) %MON dynstat_uvel_max             =   1.8584654433542E-02
(PID.TID 0000.0001) %MON dynstat_uvel_min             =  -1.7362561961854E-02
(PID.TID 0000.0001) %MON dynstat_uvel_mean            =  -8.9861270204694E-04
(PID.TID 0000.0001) %MON dynstat_uvel_sd              =   2.1532819402765E-03
(PID.TID 0000.0001) %MON dynstat_uvel_del2            =   7.8814914771775E-04
(PID.TID 0000.0001) %MON dynstat_vvel_max             =   3.4260003366630E-02
(PID.TID 0000.0001) %MON dynstat_vvel_min             =  -1.8170910538789E-02
(PID.TID 0000.0001) %MON dynstat_vvel_mean            =   1.8003072701630E-03
(PID.TID 0000.0001) %MON dynstat_vvel_sd              =   6.3049463004091E-03
(PID.TID 0000.0001) %MON dynstat_vvel_del2            =   9.5308270212267E-04
(PID.TID 0000.0001) %MON dynstat_wvel_max             =   2.1015751719505E-04
(PID.TID 0000.0001) %MON dynstat_wvel_min             =  -1.4865333791844E-04
(PID.TID 0000.0001) %MON dynstat_wvel_mean            =  -2.2868673778044E-22
(PID.TID 0000.0001) %MON dynstat_wvel_sd              =   2.4440849152891E-05
(PID.TID 0000.0001) %MON dynstat_wvel_del2            =   1.0163891504458E-05
(PID.TID 0000.0001) %MON dynstat_theta_max            =   2.9700166023976E+01
(PID.TID 0000.0001) %MON dynstat_theta_min            =  -1.9040111977862E+00
(PID.TID 0000.0001) %MON dynstat_theta_mean           =   3.6189496293575E+00
(PID.TID 0000.0001) %MON dynstat_theta_sd             =   4.4154351364894E+00
(PID.TID 0000.0001) %MON dynstat_theta_del2           =   1.5036955479254E-01
(PID.TID 0000.0001) %MON dynstat_salt_max             =   3.7464905082630E+01
(PID.TID 0000.0001) %MON dynstat_salt_min             =   2.9757161979420E+01
(PID.TID 0000.0001) %MON dynstat_salt_mean            =   3.4717942478179E+01
(PID.TID 0000.0001) %MON dynstat_salt_sd              =   2.9608966189137E-01
(PID.TID 0000.0001) %MON dynstat_salt_del2            =   2.6599198221208E-02
(PID.TID 0000.0001) %MON advcfl_uvel_max              =   4.7369504881315E-03
(PID.TID 0000.0001) %MON advcfl_vvel_max              =   3.3280845948710E-03
(PID.TID 0000.0001) %MON advcfl_wvel_max              =   2.9001219121459E-01
(PID.TID 0000.0001) %MON advcfl_W_hf_max              =   3.0080379068105E-01
(PID.TID 0000.0001) %MON pe_b_mean                    =   4.7345422083186E-06
(PID.TID 0000.0001) %MON ke_max                       =   4.1681858965306E-04
(PID.TID 0000.0001) %MON ke_mean                      =   2.1774996158601E-05
(PID.TID 0000.0001) %MON ke_vol                       =   1.3226782436723E+18
(PID.TID 0000.0001) %MON vort_r_min                   =  -1.0607748757136E-07
(PID.TID 0000.0001) %MON vort_r_max                   =   1.2898533870487E-07
(PID.TID 0000.0001) %MON vort_a_mean                  =  -2.5205769337127E-05
(PID.TID 0000.0001) %MON vort_a_sd                    =   7.3403112633440E-05
(PID.TID 0000.0001) %MON vort_p_mean                  =  -3.1758669486519E-05
(PID.TID 0000.0001) %MON vort_p_sd                    =   1.3126588738534E-04
(PID.TID 0000.0001) %MON surfExpan_theta_mean         =   8.4711418608568E-05
(PID.TID 0000.0001) %MON surfExpan_salt_mean          =   6.7375397587588E-06
(PID.TID 0000.0001) // =======================================================
(PID.TID 0000.0001) // End MONITOR dynamic field statistics
(PID.TID 0000.0001) // =======================================================
(PID.TID 0000.0001) 
(PID.TID 0000.0001)  exf_GetFFieldsRec: first, changed, fac:   F   F   0.96666667E+00
(PID.TID 0000.0001)  exf_GetFFieldsRec:      count0, count1:   1   2
(PID.TID 0000.0001) 
(PID.TID 0000.0001) 
(PID.TID 0000.0001)  exf_GetFFieldsRec: first, changed, fac:   F   F   0.96666667E+00
(PID.TID 0000.0001)  exf_GetFFieldsRec:      count0, count1:   1   2
(PID.TID 0000.0001) 
(PID.TID 0000.0001) 
(PID.TID 0000.0001)  exf_GetFFieldsRec: first, changed, fac:   F   F   0.96666667E+00
(PID.TID 0000.0001)  exf_GetFFieldsRec:      count0, count1:   1   2
(PID.TID 0000.0001) 
(PID.TID 0000.0001) 
(PID.TID 0000.0001)  exf_GetFFieldsRec: first, changed, fac:   F   F   0.96666667E+00
(PID.TID 0000.0001)  exf_GetFFieldsRec:      count0, count1:   1   2
(PID.TID 0000.0001) 
(PID.TID 0000.0001) 
(PID.TID 0000.0001)  exf_GetFFieldsRec: first, changed, fac:   F   F   0.96666667E+00
(PID.TID 0000.0001)  exf_GetFFieldsRec:      count0, count1:   1   2
(PID.TID 0000.0001) 
 cg2d: Sum(rhs),rhsMax =   7.34576922943944E-14  6.32519553693612E+00
(PID.TID 0000.0001)                    cg2d_init_res =    2.20365405640714E+00
(PID.TID 0000.0001)                       cg2d_iters =    26
(PID.TID 0000.0001)                         cg2d_res =    2.89549419155727E-14
(PID.TID 0000.0001) // =======================================================
(PID.TID 0000.0001) // Begin MONITOR dynamic field statistics
(PID.TID 0000.0001) // =======================================================
(PID.TID 0000.0001) %MON time_tsnumber                =                     3
(PID.TID 0000.0001) %MON time_secondsf                =   1.2960000000000E+05
(PID.TID 0000.0001) %MON dynstat_eta_max              =   5.1567736360779E-01
(PID.TID 0000.0001) %MON dynstat_eta_min              =  -3.8631397113919E-01
(PID.TID 0000.0001) %MON dynstat_eta_mean             =  -4.8948232982019E-17
(PID.TID 0000.0001) %MON dynstat_eta_sd               =   9.3637861023982E-02
(PID.TID 0000.0001) %MON dynstat_eta_del2             =   2.8114572993845E-02
(PID.TID 0000.0001) %MON dynstat_uvel_max             =   3.0271700818283E-02
(PID.TID 0000.0001) %MON dynstat_uvel_min             =  -3.0453545302232E-02
(PID.TID 0000.0001) %MON dynstat_uvel_mean            =  -1.5821951982813E-03
(PID.TID 0000.0001) %MON dynstat_uvel_sd              =   3.0690797153275E-03
(PID.TID 0000.0001) %MON dynstat_uvel_del2            =   1.1501888234769E-03
(PID.TID 0000.0001) %MON dynstat_vvel_max             =   4.5744116956463E-02
(PID.TID 0000.0001) %MON dynstat_vvel_min             =  -2.3615126423587E-02
(PID.TID 0000.0001) %MON dynstat_vvel_mean            =   2.6061900135478E-03
(PID.TID 0000.0001) %MON dynstat_vvel_sd              =   8.6524565063072E-03
(PID.TID 0000.0001) %MON dynstat_vvel_del2            =   1.3523744439434E-03
(PID.TID 0000.0001) %MON dynstat_wvel_max             =   1.9800261137446E-04
(PID.TID 0000.0001) %MON dynstat_wvel_min             =  -1.6852477882371E-04
(PID.TID 0000.0001) %MON dynstat_wvel_mean            =   2.0900210368694E-22
(PID.TID 0000.0001) %MON dynstat_wvel_sd              =   2.7018301031494E-05
(PID.TID 0000.0001) %MON dynstat_wvel_del2            =   8.5218727356868E-06
(PID.TID 0000.0001) %MON dynstat_theta_max            =   2.9672655060590E+01
(PID.TID 0000.0001) %MON dynstat_theta_min            =  -1.9090906452761E+00
(PID.TID 0000.0001) %MON dynstat_theta_mean           =   3.6177843934244E+00
(PID.TID 0000.0001) %MON dynstat_theta_sd             =   4.4130316716320E+00
(PID.TID 0000.0001) %MON dynstat_theta_del2           =   1.4841392492542E-01
(PID.TID 0000.0001) %MON dynstat_salt_max             =   3.7460286028718E+01
(PID.TID 0000.0001) %MON dynstat_salt_min             =   2.9760343034192E+01
(PID.TID 0000.0001) %MON dynstat_salt_mean            =   3.4717844898813E+01
(PID.TID 0000.0001) %MON dynstat_salt_sd              =   2.9610567049017E-01
(PID.TID 0000.0001) %MON dynstat_salt_del2            =   2.6532899868628E-02
(PID.TID 0000.0001) %MON advcfl_uvel_max              =   6.1706033379641E-03
(PID.TID 0000.0001) %MON advcfl_vvel_max              =   4.4436741386041E-03
(PID.TID 0000.0001) %MON advcfl_wvel_max              =   2.1261940574402E-01
(PID.TID 0000.0001) %MON advcfl_W_hf_max              =   2.1722754970887E-01
(PID.TID 0000.0001) %MON pe_b_mean                    =   1.1219775555208E-05
(PID.TID 0000.0001) %MON ke_max                       =   8.0826539233774E-04
(PID.TID 0000.0001) %MON ke_mean                      =   4.2076124484888E-05
(PID.TID 0000.0001) %MON ke_vol                       =   1.3226782436723E+18
(PID.TID 0000.0001) %MON vort_r_min                   =  -1.5860495470709E-07
(PID.TID 0000.0001) %MON vort_r_max                   =   1.8493629761699E-07
(PID.TID 0000.0001) %MON vort_a_mean                  =  -2.5205769353353E-05
(PID.TID 0000.0001) %MON vort_a_sd                    =   7.3402977377173E-05
(PID.TID 0000.0001) %MON vort_p_mean                  =  -3.1758669506963E-05
(PID.TID 0000.0001) %MON vort_p_sd                    =   1.3126560746161E-04
(PID.TID 0000.0001) %MON surfExpan_theta_mean         =   1.1384482317312E-04
(PID.TID 0000.0001) %MON surfExpan_salt_mean          =   9.3709490397539E-06
(PID.TID 0000.0001) // =======================================================
(PID.TID 0000.0001) // End MONITOR dynamic field statistics
(PID.TID 0000.0001) // =======================================================
(PID.TID 0000.0001) 
(PID.TID 0000.0001)  exf_GetFFieldsRec: first, changed, fac:   F   F   0.95000000E+00
(PID.TID 0000.0001)  exf_GetFFieldsRec:      count0, count1:   1   2
(PID.TID 0000.0001) 
(PID.TID 0000.0001) 
(PID.TID 0000.0001)  exf_GetFFieldsRec: first, changed, fac:   F   F   0.95000000E+00
(PID.TID 0000.0001)  exf_GetFFieldsRec:      count0, count1:   1   2
(PID.TID 0000.0001) 
(PID.TID 0000.0001) 
(PID.TID 0000.0001)  exf_GetFFieldsRec: first, changed, fac:   F   F   0.95000000E+00
(PID.TID 0000.0001)  exf_GetFFieldsRec:      count0, count1:   1   2
(PID.TID 0000.0001) 
(PID.TID 0000.0001) 
(PID.TID 0000.0001)  exf_GetFFieldsRec: first, changed, fac:   F   F   0.95000000E+00
(PID.TID 0000.0001)  exf_GetFFieldsRec:      count0, count1:   1   2
(PID.TID 0000.0001) 
(PID.TID 0000.0001) 
(PID.TID 0000.0001)  exf_GetFFieldsRec: first, changed, fac:   F   F   0.95000000E+00
(PID.TID 0000.0001)  exf_GetFFieldsRec:      count0, count1:   1   2
(PID.TID 0000.0001) 
 cg2d: Sum(rhs),rhsMax =   8.98041406863226E-14  6.76142632594710E+00
(PID.TID 0000.0001)                    cg2d_init_res =    1.89649678365979E+00
(PID.TID 0000.0001)                       cg2d_iters =    26
(PID.TID 0000.0001)                         cg2d_res =    2.60175667915512E-14
(PID.TID 0000.0001) // =======================================================
(PID.TID 0000.0001) // Begin MONITOR dynamic field statistics
(PID.TID 0000.0001) // =======================================================
(PID.TID 0000.0001) %MON time_tsnumber                =                     4
(PID.TID 0000.0001) %MON time_secondsf                =   1.7280000000000E+05
(PID.TID 0000.0001) %MON dynstat_eta_max              =   5.9330150877124E-01
(PID.TID 0000.0001) %MON dynstat_eta_min              =  -5.0427314520844E-01
(PID.TID 0000.0001) %MON dynstat_eta_mean             =  -3.7240981514537E-17
(PID.TID 0000.0001) %MON dynstat_eta_sd               =   1.2393538524674E-01
(PID.TID 0000.0001) %MON dynstat_eta_del2             =   2.9316200251778E-02
(PID.TID 0000.0001) %MON dynstat_uvel_max             =   4.2262643703090E-02
(PID.TID 0000.0001) %MON dynstat_uvel_min             =  -4.2832772851276E-02
(PID.TID 0000.0001) %MON dynstat_uvel_mean            =  -2.3835561328667E-03
(PID.TID 0000.0001) %MON dynstat_uvel_sd              =   4.1295625019978E-03
(PID.TID 0000.0001) %MON dynstat_uvel_del2            =   1.4975701242053E-03
(PID.TID 0000.0001) %MON dynstat_vvel_max             =   5.3473620186818E-02
(PID.TID 0000.0001) %MON dynstat_vvel_min             =  -3.4772091553198E-02
(PID.TID 0000.0001) %MON dynstat_vvel_mean            =   3.3228354647329E-03
(PID.TID 0000.0001) %MON dynstat_vvel_sd              =   1.0607515556482E-02
(PID.TID 0000.0001) %MON dynstat_vvel_del2            =   1.7524673420836E-03
(PID.TID 0000.0001) %MON dynstat_wvel_max             =   2.0353875613683E-04
(PID.TID 0000.0001) %MON dynstat_wvel_min             =  -2.0406953903531E-04
(PID.TID 0000.0001) %MON dynstat_wvel_mean            =  -1.7561958180629E-21
(PID.TID 0000.0001) %MON dynstat_wvel_sd              =   2.8759379126441E-05
(PID.TID 0000.0001) %MON dynstat_wvel_del2            =   8.0965316923583E-06
(PID.TID 0000.0001) %MON dynstat_theta_max            =   2.9685668715318E+01
(PID.TID 0000.0001) %MON dynstat_theta_min            =  -1.9217399749387E+00
(PID.TID 0000.0001) %MON dynstat_theta_mean           =   3.6163486171314E+00
(PID.TID 0000.0001) %MON dynstat_theta_sd             =   4.4101038084772E+00
(PID.TID 0000.0001) %MON dynstat_theta_del2           =   1.4746215713817E-01
(PID.TID 0000.0001) %MON dynstat_salt_max             =   3.7456014548638E+01
(PID.TID 0000.0001) %MON dynstat_salt_min             =   2.9763859182371E+01
(PID.TID 0000.0001) %MON dynstat_salt_mean            =   3.4717721506567E+01
(PID.TID 0000.0001) %MON dynstat_salt_sd              =   2.9612335297398E-01
(PID.TID 0000.0001) %MON dynstat_salt_del2            =   2.6468315539503E-02
(PID.TID 0000.0001) %MON advcfl_uvel_max              =   9.3075717252560E-03
(PID.TID 0000.0001) %MON advcfl_vvel_max              =   5.1945333942691E-03
(PID.TID 0000.0001) %MON advcfl_wvel_max              =   2.3969752165473E-01
(PID.TID 0000.0001) %MON advcfl_W_hf_max              =   2.4013524575739E-01
(PID.TID 0000.0001) %MON pe_b_mean                    =   1.9654945428788E-05
(PID.TID 0000.0001) %MON ke_max                       =   1.2540721949372E-03
(PID.TID 0000.0001) %MON ke_mean                      =   6.5800465013057E-05
(PID.TID 0000.0001) %MON ke_vol                       =   1.3226782436723E+18
(PID.TID 0000.0001) %MON vort_r_min                   =  -2.0763925690170E-07
(PID.TID 0000.0001) %MON vort_r_max                   =   2.3456622990116E-07
(PID.TID 0000.0001) %MON vort_a_mean                  =  -2.5205769356079E-05
(PID.TID 0000.0001) %MON vort_a_sd                    =   7.3402822976131E-05
(PID.TID 0000.0001) %MON vort_p_mean                  =  -3.1758669510398E-05
(PID.TID 0000.0001) %MON vort_p_sd                    =   1.3126523900258E-04
(PID.TID 0000.0001) %MON surfExpan_theta_mean         =   1.3609044748835E-04
(PID.TID 0000.0001) %MON surfExpan_salt_mean          =   1.1323600506399E-05
(PID.TID 0000.0001) // =======================================================
(PID.TID 0000.0001) // End MONITOR dynamic field statistics
(PID.TID 0000.0001) // =======================================================
(PID.TID 0000.0001) 
(PID.TID 0000.0001)  exf_GetFFieldsRec: first, changed, fac:   F   F   0.93333333E+00
(PID.TID 0000.0001)  exf_GetFFieldsRec:      count0, count1:   1   2
(PID.TID 0000.0001) 
(PID.TID 0000.0001) 
(PID.TID 0000.0001)  exf_GetFFieldsRec: first, changed, fac:   F   F   0.93333333E+00
(PID.TID 0000.0001)  exf_GetFFieldsRec:      count0, count1:   1   2
(PID.TID 0000.0001) 
(PID.TID 0000.0001) 
(PID.TID 0000.0001)  exf_GetFFieldsRec: first, changed, fac:   F   F   0.93333333E+00
(PID.TID 0000.0001)  exf_GetFFieldsRec:      count0, count1:   1   2
(PID.TID 0000.0001) 
(PID.TID 0000.0001) 
(PID.TID 0000.0001)  exf_GetFFieldsRec: first, changed, fac:   F   F   0.93333333E+00
(PID.TID 0000.0001)  exf_GetFFieldsRec:      count0, count1:   1   2
(PID.TID 0000.0001) 
(PID.TID 0000.0001) 
(PID.TID 0000.0001)  exf_GetFFieldsRec: first, changed, fac:   F   F   0.93333333E+00
(PID.TID 0000.0001)  exf_GetFFieldsRec:      count0, count1:   1   2
(PID.TID 0000.0001) 
 cg2d: Sum(rhs),rhsMax =   7.97144197439009E-14  6.91073980586612E+00
(PID.TID 0000.0001)                    cg2d_init_res =    1.79472058464188E+00
(PID.TID 0000.0001)                       cg2d_iters =    26
(PID.TID 0000.0001)                         cg2d_res =    2.68923581968012E-14
(PID.TID 0000.0001) // =======================================================
(PID.TID 0000.0001) // Begin MONITOR dynamic field statistics
(PID.TID 0000.0001) // =======================================================
(PID.TID 0000.0001) %MON time_tsnumber                =                     5
(PID.TID 0000.0001) %MON time_secondsf                =   2.1600000000000E+05
(PID.TID 0000.0001) %MON dynstat_eta_max              =   6.3902219728804E-01
(PID.TID 0000.0001) %MON dynstat_eta_min              =  -5.8481029999696E-01
(PID.TID 0000.0001) %MON dynstat_eta_mean             =   4.4277535466905E-18
(PID.TID 0000.0001) %MON dynstat_eta_sd               =   1.5276169950602E-01
(PID.TID 0000.0001) %MON dynstat_eta_del2             =   2.8806694385116E-02
(PID.TID 0000.0001) %MON dynstat_uvel_max             =   5.4091814062190E-02
(PID.TID 0000.0001) %MON dynstat_uvel_min             =  -5.3180850144713E-02
(PID.TID 0000.0001) %MON dynstat_uvel_mean            =  -3.2723977544307E-03
(PID.TID 0000.0001) %MON dynstat_uvel_sd              =   5.3107785001156E-03
(PID.TID 0000.0001) %MON dynstat_uvel_del2            =   1.8090766438132E-03
(PID.TID 0000.0001) %MON dynstat_vvel_max             =   5.8236336774840E-02
(PID.TID 0000.0001) %MON dynstat_vvel_min             =  -4.6632305796236E-02
(PID.TID 0000.0001) %MON dynstat_vvel_mean            =   3.9341817674776E-03
(PID.TID 0000.0001) %MON dynstat_vvel_sd              =   1.2204774409382E-02
(PID.TID 0000.0001) %MON dynstat_vvel_del2            =   2.1151972871620E-03
(PID.TID 0000.0001) %MON dynstat_wvel_max             =   2.3128114958916E-04
(PID.TID 0000.0001) %MON dynstat_wvel_min             =  -2.3636074795583E-04
(PID.TID 0000.0001) %MON dynstat_wvel_mean            =   6.6751959747545E-22
(PID.TID 0000.0001) %MON dynstat_wvel_sd              =   3.0513715532677E-05
(PID.TID 0000.0001) %MON dynstat_wvel_del2            =   8.8367271620859E-06
(PID.TID 0000.0001) %MON dynstat_theta_max            =   2.9723827915433E+01
(PID.TID 0000.0001) %MON dynstat_theta_min            =  -1.9446672144177E+00
(PID.TID 0000.0001) %MON dynstat_theta_mean           =   3.6147087471568E+00
(PID.TID 0000.0001) %MON dynstat_theta_sd             =   4.4067523587544E+00
(PID.TID 0000.0001) %MON dynstat_theta_del2           =   1.4698301083068E-01
(PID.TID 0000.0001) %MON dynstat_salt_max             =   3.7451598805545E+01
(PID.TID 0000.0001) %MON dynstat_salt_min             =   2.9767564007458E+01
(PID.TID 0000.0001) %MON dynstat_salt_mean            =   3.4717580717151E+01
(PID.TID 0000.0001) %MON dynstat_salt_sd              =   2.9614773056306E-01
(PID.TID 0000.0001) %MON dynstat_salt_del2            =   2.6411446600266E-02
(PID.TID 0000.0001) %MON advcfl_uvel_max              =   1.1964885204289E-02
(PID.TID 0000.0001) %MON advcfl_vvel_max              =   5.6571931184002E-03
(PID.TID 0000.0001) %MON advcfl_wvel_max              =   2.4856072854084E-01
(PID.TID 0000.0001) %MON advcfl_W_hf_max              =   2.5255370347988E-01
(PID.TID 0000.0001) %MON pe_b_mean                    =   2.9861399852257E-05
(PID.TID 0000.0001) %MON ke_max                       =   1.7535257394421E-03
(PID.TID 0000.0001) %MON ke_mean                      =   9.1500512872454E-05
(PID.TID 0000.0001) %MON ke_vol                       =   1.3226782436723E+18
(PID.TID 0000.0001) %MON vort_r_min                   =  -2.5049922278058E-07
(PID.TID 0000.0001) %MON vort_r_max                   =   2.7641150715237E-07
(PID.TID 0000.0001) %MON vort_a_mean                  =  -2.5205769352505E-05
(PID.TID 0000.0001) %MON vort_a_sd                    =   7.3402654367715E-05
(PID.TID 0000.0001) %MON vort_p_mean                  =  -3.1758669505895E-05
(PID.TID 0000.0001) %MON vort_p_sd                    =   1.3126478818166E-04
(PID.TID 0000.0001) %MON surfExpan_theta_mean         =   1.5228068583295E-04
(PID.TID 0000.0001) %MON surfExpan_salt_mean          =   1.2641782020955E-05
(PID.TID 0000.0001) // =======================================================
(PID.TID 0000.0001) // End MONITOR dynamic field statistics
(PID.TID 0000.0001) // =======================================================
(PID.TID 0000.0001) 
(PID.TID 0000.0001)  exf_GetFFieldsRec: first, changed, fac:   F   F   0.91666667E+00
(PID.TID 0000.0001)  exf_GetFFieldsRec:      count0, count1:   1   2
(PID.TID 0000.0001) 
(PID.TID 0000.0001) 
(PID.TID 0000.0001)  exf_GetFFieldsRec: first, changed, fac:   F   F   0.91666667E+00
(PID.TID 0000.0001)  exf_GetFFieldsRec:      count0, count1:   1   2
(PID.TID 0000.0001) 
(PID.TID 0000.0001) 
(PID.TID 0000.0001)  exf_GetFFieldsRec: first, changed, fac:   F   F   0.91666667E+00
(PID.TID 0000.0001)  exf_GetFFieldsRec:      count0, count1:   1   2
(PID.TID 0000.0001) 
(PID.TID 0000.0001) 
(PID.TID 0000.0001)  exf_GetFFieldsRec: first, changed, fac:   F   F   0.91666667E+00
(PID.TID 0000.0001)  exf_GetFFieldsRec:      count0, count1:   1   2
(PID.TID 0000.0001) 
(PID.TID 0000.0001) 
(PID.TID 0000.0001)  exf_GetFFieldsRec: first, changed, fac:   F   F   0.91666667E+00
(PID.TID 0000.0001)  exf_GetFFieldsRec:      count0, count1:   1   2
(PID.TID 0000.0001) 
 cg2d: Sum(rhs),rhsMax =   5.14785425658609E-14  6.95989791342590E+00
(PID.TID 0000.0001)                    cg2d_init_res =    1.72302344298137E+00
(PID.TID 0000.0001)                       cg2d_iters =    26
(PID.TID 0000.0001)                         cg2d_res =    2.75534475492588E-14
(PID.TID 0000.0001) // =======================================================
(PID.TID 0000.0001) // Begin MONITOR dynamic field statistics
(PID.TID 0000.0001) // =======================================================
(PID.TID 0000.0001) %MON time_tsnumber                =                     6
(PID.TID 0000.0001) %MON time_secondsf                =   2.5920000000000E+05
(PID.TID 0000.0001) %MON dynstat_eta_max              =   7.2901966492574E-01
(PID.TID 0000.0001) %MON dynstat_eta_min              =  -6.4969632414318E-01
(PID.TID 0000.0001) %MON dynstat_eta_mean             =   9.1812096615854E-18
(PID.TID 0000.0001) %MON dynstat_eta_sd               =   1.8065475265123E-01
(PID.TID 0000.0001) %MON dynstat_eta_del2             =   2.7905844760634E-02
(PID.TID 0000.0001) %MON dynstat_uvel_max             =   6.5463756948989E-02
(PID.TID 0000.0001) %MON dynstat_uvel_min             =  -6.1572375377046E-02
(PID.TID 0000.0001) %MON dynstat_uvel_mean            =  -4.2167856356879E-03
(PID.TID 0000.0001) %MON dynstat_uvel_sd              =   6.5735990097697E-03
(PID.TID 0000.0001) %MON dynstat_uvel_del2            =   2.0897793965299E-03
(PID.TID 0000.0001) %MON dynstat_vvel_max             =   6.6917015064937E-02
(PID.TID 0000.0001) %MON dynstat_vvel_min             =  -5.8019374189599E-02
(PID.TID 0000.0001) %MON dynstat_vvel_mean            =   4.4275457749860E-03
(PID.TID 0000.0001) %MON dynstat_vvel_sd              =   1.3460751180103E-02
(PID.TID 0000.0001) %MON dynstat_vvel_del2            =   2.4307020792642E-03
(PID.TID 0000.0001) %MON dynstat_wvel_max             =   2.5362773701327E-04
(PID.TID 0000.0001) %MON dynstat_wvel_min             =  -2.6315770064638E-04
(PID.TID 0000.0001) %MON dynstat_wvel_mean            =   7.3229267812113E-22
(PID.TID 0000.0001) %MON dynstat_wvel_sd              =   3.2289360924642E-05
(PID.TID 0000.0001) %MON dynstat_wvel_del2            =   9.9861923259672E-06
(PID.TID 0000.0001) %MON dynstat_theta_max            =   2.9760467475668E+01
(PID.TID 0000.0001) %MON dynstat_theta_min            =  -1.9735517270106E+00
(PID.TID 0000.0001) %MON dynstat_theta_mean           =   3.6129276340043E+00
(PID.TID 0000.0001) %MON dynstat_theta_sd             =   4.4030554405098E+00
(PID.TID 0000.0001) %MON dynstat_theta_del2           =   1.4654203532782E-01
(PID.TID 0000.0001) %MON dynstat_salt_max             =   3.7447204425953E+01
(PID.TID 0000.0001) %MON dynstat_salt_min             =   2.9771310942514E+01
(PID.TID 0000.0001) %MON dynstat_salt_mean            =   3.4717429375197E+01
(PID.TID 0000.0001) %MON dynstat_salt_sd              =   2.9616763612540E-01
(PID.TID 0000.0001) %MON dynstat_salt_del2            =   2.6360522409259E-02
(PID.TID 0000.0001) %MON advcfl_uvel_max              =   1.5173164680544E-02
(PID.TID 0000.0001) %MON advcfl_vvel_max              =   6.5004514036122E-03
(PID.TID 0000.0001) %MON advcfl_wvel_max              =   2.1394798318995E-01
(PID.TID 0000.0001) %MON advcfl_W_hf_max              =   2.2288043449567E-01
(PID.TID 0000.0001) %MON pe_b_mean                    =   4.1761874415486E-05
(PID.TID 0000.0001) %MON ke_max                       =   2.3089032206693E-03
(PID.TID 0000.0001) %MON ke_mean                      =   1.1785593471160E-04
(PID.TID 0000.0001) %MON ke_vol                       =   1.3226782436723E+18
(PID.TID 0000.0001) %MON vort_r_min                   =  -2.8522472505837E-07
(PID.TID 0000.0001) %MON vort_r_max                   =   3.1019446567752E-07
(PID.TID 0000.0001) %MON vort_a_mean                  =  -2.5205769365867E-05
(PID.TID 0000.0001) %MON vort_a_sd                    =   7.3402476584101E-05
(PID.TID 0000.0001) %MON vort_p_mean                  =  -3.1758669522731E-05
(PID.TID 0000.0001) %MON vort_p_sd                    =   1.3126426961883E-04
(PID.TID 0000.0001) %MON surfExpan_theta_mean         =   1.6299474697268E-04
(PID.TID 0000.0001) %MON surfExpan_salt_mean          =   1.3418223961420E-05
(PID.TID 0000.0001) // =======================================================
(PID.TID 0000.0001) // End MONITOR dynamic field statistics
(PID.TID 0000.0001) // =======================================================
(PID.TID 0000.0001) 
(PID.TID 0000.0001)  exf_GetFFieldsRec: first, changed, fac:   F   F   0.90000000E+00
(PID.TID 0000.0001)  exf_GetFFieldsRec:      count0, count1:   1   2
(PID.TID 0000.0001) 
(PID.TID 0000.0001) 
(PID.TID 0000.0001)  exf_GetFFieldsRec: first, changed, fac:   F   F   0.90000000E+00
(PID.TID 0000.0001)  exf_GetFFieldsRec:      count0, count1:   1   2
(PID.TID 0000.0001) 
(PID.TID 0000.0001) 
(PID.TID 0000.0001)  exf_GetFFieldsRec: first, changed, fac:   F   F   0.90000000E+00
(PID.TID 0000.0001)  exf_GetFFieldsRec:      count0, count1:   1   2
(PID.TID 0000.0001) 
(PID.TID 0000.0001) 
(PID.TID 0000.0001)  exf_GetFFieldsRec: first, changed, fac:   F   F   0.90000000E+00
(PID.TID 0000.0001)  exf_GetFFieldsRec:      count0, count1:   1   2
(PID.TID 0000.0001) 
(PID.TID 0000.0001) 
(PID.TID 0000.0001)  exf_GetFFieldsRec: first, changed, fac:   F   F   0.90000000E+00
(PID.TID 0000.0001)  exf_GetFFieldsRec:      count0, count1:   1   2
(PID.TID 0000.0001) 
 cg2d: Sum(rhs),rhsMax =   7.83315740830043E-15  7.25410504025953E+00
(PID.TID 0000.0001)                    cg2d_init_res =    1.59305673520147E+00
(PID.TID 0000.0001)                       cg2d_iters =    26
(PID.TID 0000.0001)                         cg2d_res =    2.59681406250948E-14
(PID.TID 0000.0001) // =======================================================
(PID.TID 0000.0001) // Begin MONITOR dynamic field statistics
(PID.TID 0000.0001) // =======================================================
(PID.TID 0000.0001) %MON time_tsnumber                =                     7
(PID.TID 0000.0001) %MON time_secondsf                =   3.0240000000000E+05
(PID.TID 0000.0001) %MON dynstat_eta_max              =   8.3286427996759E-01
(PID.TID 0000.0001) %MON dynstat_eta_min              =  -7.0402126254756E-01
(PID.TID 0000.0001) %MON dynstat_eta_mean             =  -4.5641911561239E-17
(PID.TID 0000.0001) %MON dynstat_eta_sd               =   2.0764250141390E-01
(PID.TID 0000.0001) %MON dynstat_eta_del2             =   2.7009867092178E-02
(PID.TID 0000.0001) %MON dynstat_uvel_max             =   7.6206636095445E-02
(PID.TID 0000.0001) %MON dynstat_uvel_min             =  -7.6498618126729E-02
(PID.TID 0000.0001) %MON dynstat_uvel_mean            =  -5.1841251213828E-03
(PID.TID 0000.0001) %MON dynstat_uvel_sd              =   7.8820054461530E-03
(PID.TID 0000.0001) %MON dynstat_uvel_del2            =   2.3438023833032E-03
(PID.TID 0000.0001) %MON dynstat_vvel_max             =   7.5964710237585E-02
(PID.TID 0000.0001) %MON dynstat_vvel_min             =  -6.8515198842628E-02
(PID.TID 0000.0001) %MON dynstat_vvel_mean            =   4.7946581461390E-03
(PID.TID 0000.0001) %MON dynstat_vvel_sd              =   1.4393534139673E-02
(PID.TID 0000.0001) %MON dynstat_vvel_del2            =   2.7002839833359E-03
(PID.TID 0000.0001) %MON dynstat_wvel_max             =   2.7057795449651E-04
(PID.TID 0000.0001) %MON dynstat_wvel_min             =  -2.8378997287253E-04
(PID.TID 0000.0001) %MON dynstat_wvel_mean            =   1.5199586271780E-21
(PID.TID 0000.0001) %MON dynstat_wvel_sd              =   3.3915044678211E-05
(PID.TID 0000.0001) %MON dynstat_wvel_del2            =   1.0986047667818E-05
(PID.TID 0000.0001) %MON dynstat_theta_max            =   2.9778089716695E+01
(PID.TID 0000.0001) %MON dynstat_theta_min            =  -2.0062982854371E+00
(PID.TID 0000.0001) %MON dynstat_theta_mean           =   3.6110631091098E+00
(PID.TID 0000.0001) %MON dynstat_theta_sd             =   4.3990966868081E+00
(PID.TID 0000.0001) %MON dynstat_theta_del2           =   1.4599764261688E-01
(PID.TID 0000.0001) %MON dynstat_salt_max             =   3.7443184497662E+01
(PID.TID 0000.0001) %MON dynstat_salt_min             =   2.9774961189733E+01
(PID.TID 0000.0001) %MON dynstat_salt_mean            =   3.4717272959093E+01
(PID.TID 0000.0001) %MON dynstat_salt_sd              =   2.9618012159559E-01
(PID.TID 0000.0001) %MON dynstat_salt_del2            =   2.6310661790386E-02
(PID.TID 0000.0001) %MON advcfl_uvel_max              =   1.7520721489696E-02
(PID.TID 0000.0001) %MON advcfl_vvel_max              =   7.3793624358425E-03
(PID.TID 0000.0001) %MON advcfl_wvel_max              =   1.8651088272862E-01
(PID.TID 0000.0001) %MON advcfl_W_hf_max              =   1.8487701216527E-01
(PID.TID 0000.0001) %MON pe_b_mean                    =   5.5171361861608E-05
(PID.TID 0000.0001) %MON ke_max                       =   2.9121755216949E-03
(PID.TID 0000.0001) %MON ke_mean                      =   1.4376464437780E-04
(PID.TID 0000.0001) %MON ke_vol                       =   1.3226782436723E+18
(PID.TID 0000.0001) %MON vort_r_min                   =  -3.1108885508133E-07
(PID.TID 0000.0001) %MON vort_r_max                   =   3.3692453220373E-07
(PID.TID 0000.0001) %MON vort_a_mean                  =  -2.5205769408119E-05
(PID.TID 0000.0001) %MON vort_a_sd                    =   7.3402294876614E-05
(PID.TID 0000.0001) %MON vort_p_mean                  =  -3.1758669575967E-05
(PID.TID 0000.0001) %MON vort_p_sd                    =   1.3126370067292E-04
(PID.TID 0000.0001) %MON surfExpan_theta_mean         =   1.6871204633222E-04
(PID.TID 0000.0001) %MON surfExpan_salt_mean          =   1.3729860173019E-05
(PID.TID 0000.0001) // =======================================================
(PID.TID 0000.0001) // End MONITOR dynamic field statistics
(PID.TID 0000.0001) // =======================================================
(PID.TID 0000.0001) 
(PID.TID 0000.0001)  exf_GetFFieldsRec: first, changed, fac:   F   F   0.88333333E+00
(PID.TID 0000.0001)  exf_GetFFieldsRec:      count0, count1:   1   2
(PID.TID 0000.0001) 
(PID.TID 0000.0001) 
(PID.TID 0000.0001)  exf_GetFFieldsRec: first, changed, fac:   F   F   0.88333333E+00
(PID.TID 0000.0001)  exf_GetFFieldsRec:      count0, count1:   1   2
(PID.TID 0000.0001) 
(PID.TID 0000.0001) 
(PID.TID 0000.0001)  exf_GetFFieldsRec: first, changed, fac:   F   F   0.88333333E+00
(PID.TID 0000.0001)  exf_GetFFieldsRec:      count0, count1:   1   2
(PID.TID 0000.0001) 
(PID.TID 0000.0001) 
(PID.TID 0000.0001)  exf_GetFFieldsRec: first, changed, fac:   F   F   0.88333333E+00
(PID.TID 0000.0001)  exf_GetFFieldsRec:      count0, count1:   1   2
(PID.TID 0000.0001) 
(PID.TID 0000.0001) 
(PID.TID 0000.0001)  exf_GetFFieldsRec: first, changed, fac:   F   F   0.88333333E+00
(PID.TID 0000.0001)  exf_GetFFieldsRec:      count0, count1:   1   2
(PID.TID 0000.0001) 
 cg2d: Sum(rhs),rhsMax =  -2.71169534309806E-14  7.86625322803041E+00
(PID.TID 0000.0001)                    cg2d_init_res =    1.41424617863257E+00
(PID.TID 0000.0001)                       cg2d_iters =    26
(PID.TID 0000.0001)                         cg2d_res =    2.31899304224276E-14
(PID.TID 0000.0001) // =======================================================
(PID.TID 0000.0001) // Begin MONITOR dynamic field statistics
(PID.TID 0000.0001) // =======================================================
(PID.TID 0000.0001) %MON time_tsnumber                =                     8
(PID.TID 0000.0001) %MON time_secondsf                =   3.4560000000000E+05
(PID.TID 0000.0001) %MON dynstat_eta_max              =   9.0668555345340E-01
(PID.TID 0000.0001) %MON dynstat_eta_min              =  -7.4789506059464E-01
(PID.TID 0000.0001) %MON dynstat_eta_mean             =  -4.1416037994372E-17
(PID.TID 0000.0001) %MON dynstat_eta_sd               =   2.3350988715542E-01
(PID.TID 0000.0001) %MON dynstat_eta_del2             =   2.6393483892150E-02
(PID.TID 0000.0001) %MON dynstat_uvel_max             =   8.6272603138488E-02
(PID.TID 0000.0001) %MON dynstat_uvel_min             =  -9.5561676417603E-02
(PID.TID 0000.0001) %MON dynstat_uvel_mean            =  -6.1422149727394E-03
(PID.TID 0000.0001) %MON dynstat_uvel_sd              =   9.2018217000401E-03
(PID.TID 0000.0001) %MON dynstat_uvel_del2            =   2.5736111746487E-03
(PID.TID 0000.0001) %MON dynstat_vvel_max             =   8.1846600793453E-02
(PID.TID 0000.0001) %MON dynstat_vvel_min             =  -7.8025912151953E-02
(PID.TID 0000.0001) %MON dynstat_vvel_mean            =   5.0321595585094E-03
(PID.TID 0000.0001) %MON dynstat_vvel_sd              =   1.5026867501044E-02
(PID.TID 0000.0001) %MON dynstat_vvel_del2            =   2.9245914028993E-03
(PID.TID 0000.0001) %MON dynstat_wvel_max             =   2.8162884460022E-04
(PID.TID 0000.0001) %MON dynstat_wvel_min             =  -2.9815262254007E-04
(PID.TID 0000.0001) %MON dynstat_wvel_mean            =   2.2438890385601E-22
(PID.TID 0000.0001) %MON dynstat_wvel_sd              =   3.5227634105634E-05
(PID.TID 0000.0001) %MON dynstat_wvel_del2            =   1.1729401529766E-05
(PID.TID 0000.0001) %MON dynstat_theta_max            =   2.9771506240320E+01
(PID.TID 0000.0001) %MON dynstat_theta_min            =  -2.0403153981403E+00
(PID.TID 0000.0001) %MON dynstat_theta_mean           =   3.6091682617244E+00
(PID.TID 0000.0001) %MON dynstat_theta_sd             =   4.3949599904183E+00
(PID.TID 0000.0001) %MON dynstat_theta_del2           =   1.4536984401468E-01
(PID.TID 0000.0001) %MON dynstat_salt_max             =   3.7439656498464E+01
(PID.TID 0000.0001) %MON dynstat_salt_min             =   2.9778390674293E+01
(PID.TID 0000.0001) %MON dynstat_salt_mean            =   3.4717116187068E+01
(PID.TID 0000.0001) %MON dynstat_salt_sd              =   2.9618404645265E-01
(PID.TID 0000.0001) %MON dynstat_salt_del2            =   2.6265254396600E-02
(PID.TID 0000.0001) %MON advcfl_uvel_max              =   1.8625298220950E-02
(PID.TID 0000.0001) %MON advcfl_vvel_max              =   7.9507409362535E-03
(PID.TID 0000.0001) %MON advcfl_wvel_max              =   2.0059391042975E-01
(PID.TID 0000.0001) %MON advcfl_W_hf_max              =   2.0116544197818E-01
(PID.TID 0000.0001) %MON pe_b_mean                    =   6.9773699115140E-05
(PID.TID 0000.0001) %MON ke_max                       =   3.9182636801174E-03
(PID.TID 0000.0001) %MON ke_mean                      =   1.6835130803301E-04
(PID.TID 0000.0001) %MON ke_vol                       =   1.3226782436723E+18
(PID.TID 0000.0001) %MON vort_r_min                   =  -3.2857340302053E-07
(PID.TID 0000.0001) %MON vort_r_max                   =   3.9797905154628E-07
(PID.TID 0000.0001) %MON vort_a_mean                  =  -2.5205769476243E-05
(PID.TID 0000.0001) %MON vort_a_sd                    =   7.3402114589112E-05
(PID.TID 0000.0001) %MON vort_p_mean                  =  -3.1758669661801E-05
(PID.TID 0000.0001) %MON vort_p_sd                    =   1.3126309971310E-04
(PID.TID 0000.0001) %MON surfExpan_theta_mean         =   1.6993820723236E-04
(PID.TID 0000.0001) %MON surfExpan_salt_mean          =   1.3629724751620E-05
(PID.TID 0000.0001) // =======================================================
(PID.TID 0000.0001) // End MONITOR dynamic field statistics
(PID.TID 0000.0001) // =======================================================
(PID.TID 0000.0001) 
(PID.TID 0000.0001)  exf_GetFFieldsRec: first, changed, fac:   F   F   0.86666667E+00
(PID.TID 0000.0001)  exf_GetFFieldsRec:      count0, count1:   1   2
(PID.TID 0000.0001) 
(PID.TID 0000.0001) 
(PID.TID 0000.0001)  exf_GetFFieldsRec: first, changed, fac:   F   F   0.86666667E+00
(PID.TID 0000.0001)  exf_GetFFieldsRec:      count0, count1:   1   2
(PID.TID 0000.0001) 
(PID.TID 0000.0001) 
(PID.TID 0000.0001)  exf_GetFFieldsRec: first, changed, fac:   F   F   0.86666667E+00
(PID.TID 0000.0001)  exf_GetFFieldsRec:      count0, count1:   1   2
(PID.TID 0000.0001) 
(PID.TID 0000.0001) 
(PID.TID 0000.0001)  exf_GetFFieldsRec: first, changed, fac:   F   F   0.86666667E+00
(PID.TID 0000.0001)  exf_GetFFieldsRec:      count0, count1:   1   2
(PID.TID 0000.0001) 
(PID.TID 0000.0001) 
(PID.TID 0000.0001)  exf_GetFFieldsRec: first, changed, fac:   F   F   0.86666667E+00
(PID.TID 0000.0001)  exf_GetFFieldsRec:      count0, count1:   1   2
(PID.TID 0000.0001) 
 cg2d: Sum(rhs),rhsMax =  -5.83296703039055E-14  8.20277906551897E+00
(PID.TID 0000.0001)                    cg2d_init_res =    1.30550702044704E+00
(PID.TID 0000.0001)                       cg2d_iters =    25
(PID.TID 0000.0001)                         cg2d_res =    9.54031430668885E-14
(PID.TID 0000.0001) // =======================================================
(PID.TID 0000.0001) // Begin MONITOR dynamic field statistics
(PID.TID 0000.0001) // =======================================================
(PID.TID 0000.0001) %MON time_tsnumber                =                     9
(PID.TID 0000.0001) %MON time_secondsf                =   3.8880000000000E+05
(PID.TID 0000.0001) %MON dynstat_eta_max              =   9.4981150765756E-01
(PID.TID 0000.0001) %MON dynstat_eta_min              =  -8.3233954228045E-01
(PID.TID 0000.0001) %MON dynstat_eta_mean             =   1.4016229197352E-16
(PID.TID 0000.0001) %MON dynstat_eta_sd               =   2.5795547230387E-01
(PID.TID 0000.0001) %MON dynstat_eta_del2             =   2.5824014083840E-02
(PID.TID 0000.0001) %MON dynstat_uvel_max             =   9.5689565438654E-02
(PID.TID 0000.0001) %MON dynstat_uvel_min             =  -1.1202969067037E-01
(PID.TID 0000.0001) %MON dynstat_uvel_mean            =  -7.0601711787120E-03
(PID.TID 0000.0001) %MON dynstat_uvel_sd              =   1.0500641115278E-02
(PID.TID 0000.0001) %MON dynstat_uvel_del2            =   2.7777292587832E-03
(PID.TID 0000.0001) %MON dynstat_vvel_max             =   8.6550900876132E-02
(PID.TID 0000.0001) %MON dynstat_vvel_min             =  -8.6435409065611E-02
(PID.TID 0000.0001) %MON dynstat_vvel_mean            =   5.1417357844173E-03
(PID.TID 0000.0001) %MON dynstat_vvel_sd              =   1.5391836976082E-02
(PID.TID 0000.0001) %MON dynstat_vvel_del2            =   3.1047731217427E-03
(PID.TID 0000.0001) %MON dynstat_wvel_max             =   2.8596389067180E-04
(PID.TID 0000.0001) %MON dynstat_wvel_min             =  -3.0686117384578E-04
(PID.TID 0000.0001) %MON dynstat_wvel_mean            =   2.4738049232551E-22
(PID.TID 0000.0001) %MON dynstat_wvel_sd              =   3.6126157803647E-05
(PID.TID 0000.0001) %MON dynstat_wvel_del2            =   1.2239979432209E-05
(PID.TID 0000.0001) %MON dynstat_theta_max            =   2.9744963507783E+01
(PID.TID 0000.0001) %MON dynstat_theta_min            =  -2.0729326384575E+00
(PID.TID 0000.0001) %MON dynstat_theta_mean           =   3.6072902687692E+00
(PID.TID 0000.0001) %MON dynstat_theta_sd             =   4.3907242291771E+00
(PID.TID 0000.0001) %MON dynstat_theta_del2           =   1.4470453673159E-01
(PID.TID 0000.0001) %MON dynstat_salt_max             =   3.7436570112688E+01
(PID.TID 0000.0001) %MON dynstat_salt_min             =   2.9781495735952E+01
(PID.TID 0000.0001) %MON dynstat_salt_mean            =   3.4716963340146E+01
(PID.TID 0000.0001) %MON dynstat_salt_sd              =   2.9617966230741E-01
(PID.TID 0000.0001) %MON dynstat_salt_del2            =   2.6222588955916E-02
(PID.TID 0000.0001) %MON advcfl_uvel_max              =   1.8353156817101E-02
(PID.TID 0000.0001) %MON advcfl_vvel_max              =   8.4077259653346E-03
(PID.TID 0000.0001) %MON advcfl_wvel_max              =   2.0589722407462E-01
(PID.TID 0000.0001) %MON advcfl_W_hf_max              =   2.1229623672305E-01
(PID.TID 0000.0001) %MON pe_b_mean                    =   8.5147262750486E-05
(PID.TID 0000.0001) %MON ke_max                       =   4.8654140926114E-03
(PID.TID 0000.0001) %MON ke_mean                      =   1.9096776633424E-04
(PID.TID 0000.0001) %MON ke_vol                       =   1.3226782436723E+18
(PID.TID 0000.0001) %MON vort_r_min                   =  -3.3891172374889E-07
(PID.TID 0000.0001) %MON vort_r_max                   =   4.6787742090727E-07
(PID.TID 0000.0001) %MON vort_a_mean                  =  -2.5205769558925E-05
(PID.TID 0000.0001) %MON vort_a_sd                    =   7.3401940965540E-05
(PID.TID 0000.0001) %MON vort_p_mean                  =  -3.1758669765979E-05
(PID.TID 0000.0001) %MON vort_p_sd                    =   1.3126248653292E-04
(PID.TID 0000.0001) %MON surfExpan_theta_mean         =   1.6724528473021E-04
(PID.TID 0000.0001) %MON surfExpan_salt_mean          =   1.3164640967645E-05
(PID.TID 0000.0001) // =======================================================
(PID.TID 0000.0001) // End MONITOR dynamic field statistics
(PID.TID 0000.0001) // =======================================================
(PID.TID 0000.0001) 
(PID.TID 0000.0001)  exf_GetFFieldsRec: first, changed, fac:   F   F   0.85000000E+00
(PID.TID 0000.0001)  exf_GetFFieldsRec:      count0, count1:   1   2
(PID.TID 0000.0001) 
(PID.TID 0000.0001) 
(PID.TID 0000.0001)  exf_GetFFieldsRec: first, changed, fac:   F   F   0.85000000E+00
(PID.TID 0000.0001)  exf_GetFFieldsRec:      count0, count1:   1   2
(PID.TID 0000.0001) 
(PID.TID 0000.0001) 
(PID.TID 0000.0001)  exf_GetFFieldsRec: first, changed, fac:   F   F   0.85000000E+00
(PID.TID 0000.0001)  exf_GetFFieldsRec:      count0, count1:   1   2
(PID.TID 0000.0001) 
(PID.TID 0000.0001) 
(PID.TID 0000.0001)  exf_GetFFieldsRec: first, changed, fac:   F   F   0.85000000E+00
(PID.TID 0000.0001)  exf_GetFFieldsRec:      count0, count1:   1   2
(PID.TID 0000.0001) 
(PID.TID 0000.0001) 
(PID.TID 0000.0001)  exf_GetFFieldsRec: first, changed, fac:   F   F   0.85000000E+00
(PID.TID 0000.0001)  exf_GetFFieldsRec:      count0, count1:   1   2
(PID.TID 0000.0001) 
 cg2d: Sum(rhs),rhsMax =  -2.69725404121110E-13  8.30509127028808E+00
(PID.TID 0000.0001)                    cg2d_init_res =    1.24150305708613E+00
(PID.TID 0000.0001)                       cg2d_iters =    25
(PID.TID 0000.0001)                         cg2d_res =    8.87883694622409E-14
(PID.TID 0000.0001) // =======================================================
(PID.TID 0000.0001) // Begin MONITOR dynamic field statistics
(PID.TID 0000.0001) // =======================================================
(PID.TID 0000.0001) %MON time_tsnumber                =                    10
(PID.TID 0000.0001) %MON time_secondsf                =   4.3200000000000E+05
(PID.TID 0000.0001) %MON dynstat_eta_max              =   9.6677843251843E-01
(PID.TID 0000.0001) %MON dynstat_eta_min              =  -8.8619909659456E-01
(PID.TID 0000.0001) %MON dynstat_eta_mean             =   2.1562629605699E-16
(PID.TID 0000.0001) %MON dynstat_eta_sd               =   2.8066375402058E-01
(PID.TID 0000.0001) %MON dynstat_eta_del2             =   2.5153554788551E-02
(PID.TID 0000.0001) %MON dynstat_uvel_max             =   1.0449462453598E-01
(PID.TID 0000.0001) %MON dynstat_uvel_min             =  -1.2474419291092E-01
(PID.TID 0000.0001) %MON dynstat_uvel_mean            =  -7.9092425944123E-03
(PID.TID 0000.0001) %MON dynstat_uvel_sd              =   1.1749006809714E-02
(PID.TID 0000.0001) %MON dynstat_uvel_del2            =   2.9563687691539E-03
(PID.TID 0000.0001) %MON dynstat_vvel_max             =   9.6445948717190E-02
(PID.TID 0000.0001) %MON dynstat_vvel_min             =  -9.3562834142016E-02
(PID.TID 0000.0001) %MON dynstat_vvel_mean            =   5.1301249244740E-03
(PID.TID 0000.0001) %MON dynstat_vvel_sd              =   1.5527117966145E-02
(PID.TID 0000.0001) %MON dynstat_vvel_del2            =   3.2457579366222E-03
(PID.TID 0000.0001) %MON dynstat_wvel_max             =   2.8291616409912E-04
(PID.TID 0000.0001) %MON dynstat_wvel_min             =  -3.2015177884720E-04
(PID.TID 0000.0001) %MON dynstat_wvel_mean            =   1.0480938098134E-21
(PID.TID 0000.0001) %MON dynstat_wvel_sd              =   3.6571219502047E-05
(PID.TID 0000.0001) %MON dynstat_wvel_del2            =   1.2517006784180E-05
(PID.TID 0000.0001) %MON dynstat_theta_max            =   2.9708085224627E+01
(PID.TID 0000.0001) %MON dynstat_theta_min            =  -2.1017973772477E+00
(PID.TID 0000.0001) %MON dynstat_theta_mean           =   3.6054694083624E+00
(PID.TID 0000.0001) %MON dynstat_theta_sd             =   4.3864603142501E+00
(PID.TID 0000.0001) %MON dynstat_theta_del2           =   1.4405983130145E-01
(PID.TID 0000.0001) %MON dynstat_salt_max             =   3.7433841820894E+01
(PID.TID 0000.0001) %MON dynstat_salt_min             =   2.9784197357042E+01
(PID.TID 0000.0001) %MON dynstat_salt_mean            =   3.4716818213015E+01
(PID.TID 0000.0001) %MON dynstat_salt_sd              =   2.9616789117591E-01
(PID.TID 0000.0001) %MON dynstat_salt_del2            =   2.6182758747461E-02
(PID.TID 0000.0001) %MON advcfl_uvel_max              =   1.6827765318363E-02
(PID.TID 0000.0001) %MON advcfl_vvel_max              =   9.3689505143494E-03
(PID.TID 0000.0001) %MON advcfl_wvel_max              =   2.0141339789901E-01
(PID.TID 0000.0001) %MON advcfl_W_hf_max              =   2.0382040901323E-01
(PID.TID 0000.0001) %MON pe_b_mean                    =   1.0079845136874E-04
(PID.TID 0000.0001) %MON ke_max                       =   5.5837628200006E-03
(PID.TID 0000.0001) %MON ke_mean                      =   2.1118535229126E-04
(PID.TID 0000.0001) %MON ke_vol                       =   1.3226782436723E+18
(PID.TID 0000.0001) %MON vort_r_min                   =  -3.4574420585871E-07
(PID.TID 0000.0001) %MON vort_r_max                   =   5.2805114662233E-07
(PID.TID 0000.0001) %MON vort_a_mean                  =  -2.5205769642763E-05
(PID.TID 0000.0001) %MON vort_a_sd                    =   7.3401778990358E-05
(PID.TID 0000.0001) %MON vort_p_mean                  =  -3.1758669871613E-05
(PID.TID 0000.0001) %MON vort_p_sd                    =   1.3126188317310E-04
(PID.TID 0000.0001) %MON surfExpan_theta_mean         =   1.6123874410853E-04
(PID.TID 0000.0001) %MON surfExpan_salt_mean          =   1.2387627848584E-05
(PID.TID 0000.0001) // =======================================================
(PID.TID 0000.0001) // End MONITOR dynamic field statistics
(PID.TID 0000.0001) // =======================================================
(PID.TID 0000.0001) 
(PID.TID 0000.0001)  exf_GetFFieldsRec: first, changed, fac:   F   F   0.83333333E+00
(PID.TID 0000.0001)  exf_GetFFieldsRec:      count0, count1:   1   2
(PID.TID 0000.0001) 
(PID.TID 0000.0001) 
(PID.TID 0000.0001)  exf_GetFFieldsRec: first, changed, fac:   F   F   0.83333333E+00
(PID.TID 0000.0001)  exf_GetFFieldsRec:      count0, count1:   1   2
(PID.TID 0000.0001) 
(PID.TID 0000.0001) 
(PID.TID 0000.0001)  exf_GetFFieldsRec: first, changed, fac:   F   F   0.83333333E+00
(PID.TID 0000.0001)  exf_GetFFieldsRec:      count0, count1:   1   2
(PID.TID 0000.0001) 
(PID.TID 0000.0001) 
(PID.TID 0000.0001)  exf_GetFFieldsRec: first, changed, fac:   F   F   0.83333333E+00
(PID.TID 0000.0001)  exf_GetFFieldsRec:      count0, count1:   1   2
(PID.TID 0000.0001) 
(PID.TID 0000.0001) 
(PID.TID 0000.0001)  exf_GetFFieldsRec: first, changed, fac:   F   F   0.83333333E+00
(PID.TID 0000.0001)  exf_GetFFieldsRec:      count0, count1:   1   2
(PID.TID 0000.0001) 
 cg2d: Sum(rhs),rhsMax =  -4.67462602914831E-13  8.24180029725744E+00
(PID.TID 0000.0001)                    cg2d_init_res =    1.20458711163600E+00
(PID.TID 0000.0001)                       cg2d_iters =    25
(PID.TID 0000.0001)                         cg2d_res =    8.45288621816268E-14
(PID.TID 0000.0001) // =======================================================
(PID.TID 0000.0001) // Begin MONITOR dynamic field statistics
(PID.TID 0000.0001) // =======================================================
(PID.TID 0000.0001) %MON time_tsnumber                =                    11
(PID.TID 0000.0001) %MON time_secondsf                =   4.7520000000000E+05
(PID.TID 0000.0001) %MON dynstat_eta_max              =   9.6464822569220E-01
(PID.TID 0000.0001) %MON dynstat_eta_min              =  -9.1686189861117E-01
(PID.TID 0000.0001) %MON dynstat_eta_mean             =   3.1439942090071E-16
(PID.TID 0000.0001) %MON dynstat_eta_sd               =   3.0134357511613E-01
(PID.TID 0000.0001) %MON dynstat_eta_del2             =   2.4447573066099E-02
(PID.TID 0000.0001) %MON dynstat_uvel_max             =   1.1269701508599E-01
(PID.TID 0000.0001) %MON dynstat_uvel_min             =  -1.3308453419088E-01
(PID.TID 0000.0001) %MON dynstat_uvel_mean            =  -8.6637089543786E-03
(PID.TID 0000.0001) %MON dynstat_uvel_sd              =   1.2921922036304E-02
(PID.TID 0000.0001) %MON dynstat_uvel_del2            =   3.1111029377574E-03
(PID.TID 0000.0001) %MON dynstat_vvel_max             =   1.0408804978433E-01
(PID.TID 0000.0001) %MON dynstat_vvel_min             =  -9.9186485724228E-02
(PID.TID 0000.0001) %MON dynstat_vvel_mean            =   5.0089762595313E-03
(PID.TID 0000.0001) %MON dynstat_vvel_sd              =   1.5477893199101E-02
(PID.TID 0000.0001) %MON dynstat_vvel_del2            =   3.3518127878995E-03
(PID.TID 0000.0001) %MON dynstat_wvel_max             =   2.7569083529180E-04
(PID.TID 0000.0001) %MON dynstat_wvel_min             =  -3.4155615782207E-04
(PID.TID 0000.0001) %MON dynstat_wvel_mean            =   1.2616594203819E-21
(PID.TID 0000.0001) %MON dynstat_wvel_sd              =   3.6576200531601E-05
(PID.TID 0000.0001) %MON dynstat_wvel_del2            =   1.2586840092637E-05
(PID.TID 0000.0001) %MON dynstat_theta_max            =   2.9670375652161E+01
(PID.TID 0000.0001) %MON dynstat_theta_min            =  -2.1252082643530E+00
(PID.TID 0000.0001) %MON dynstat_theta_mean           =   3.6037388892525E+00
(PID.TID 0000.0001) %MON dynstat_theta_sd             =   4.3822307729303E+00
(PID.TID 0000.0001) %MON dynstat_theta_del2           =   1.4344500361871E-01
(PID.TID 0000.0001) %MON dynstat_salt_max             =   3.7431398049867E+01
(PID.TID 0000.0001) %MON dynstat_salt_min             =   2.9786443818164E+01
(PID.TID 0000.0001) %MON dynstat_salt_mean            =   3.4716683959112E+01
(PID.TID 0000.0001) %MON dynstat_salt_sd              =   2.9614968346548E-01
(PID.TID 0000.0001) %MON dynstat_salt_del2            =   2.6148195114860E-02
(PID.TID 0000.0001) %MON advcfl_uvel_max              =   1.7182025560181E-02
(PID.TID 0000.0001) %MON advcfl_vvel_max              =   1.0111319350739E-02
(PID.TID 0000.0001) %MON advcfl_wvel_max              =   1.9685451388275E-01
(PID.TID 0000.0001) %MON advcfl_W_hf_max              =   1.8968986991102E-01
(PID.TID 0000.0001) %MON pe_b_mean                    =   1.1619971770180E-04
(PID.TID 0000.0001) %MON ke_max                       =   6.5676101795675E-03
(PID.TID 0000.0001) %MON ke_mean                      =   2.2877582362050E-04
(PID.TID 0000.0001) %MON ke_vol                       =   1.3226782436723E+18
(PID.TID 0000.0001) %MON vort_r_min                   =  -3.4961896327297E-07
(PID.TID 0000.0001) %MON vort_r_max                   =   5.7535165003266E-07
(PID.TID 0000.0001) %MON vort_a_mean                  =  -2.5205769715566E-05
(PID.TID 0000.0001) %MON vort_a_sd                    =   7.3401633233285E-05
(PID.TID 0000.0001) %MON vort_p_mean                  =  -3.1758669963343E-05
(PID.TID 0000.0001) %MON vort_p_sd                    =   1.3126131379495E-04
(PID.TID 0000.0001) %MON surfExpan_theta_mean         =   1.5251932111854E-04
(PID.TID 0000.0001) %MON surfExpan_salt_mean          =   1.1359567677275E-05
(PID.TID 0000.0001) // =======================================================
(PID.TID 0000.0001) // End MONITOR dynamic field statistics
(PID.TID 0000.0001) // =======================================================
(PID.TID 0000.0001) 
(PID.TID 0000.0001)  exf_GetFFieldsRec: first, changed, fac:   F   F   0.81666667E+00
(PID.TID 0000.0001)  exf_GetFFieldsRec:      count0, count1:   1   2
(PID.TID 0000.0001) 
(PID.TID 0000.0001) 
(PID.TID 0000.0001)  exf_GetFFieldsRec: first, changed, fac:   F   F   0.81666667E+00
(PID.TID 0000.0001)  exf_GetFFieldsRec:      count0, count1:   1   2
(PID.TID 0000.0001) 
(PID.TID 0000.0001) 
(PID.TID 0000.0001)  exf_GetFFieldsRec: first, changed, fac:   F   F   0.81666667E+00
(PID.TID 0000.0001)  exf_GetFFieldsRec:      count0, count1:   1   2
(PID.TID 0000.0001) 
(PID.TID 0000.0001) 
(PID.TID 0000.0001)  exf_GetFFieldsRec: first, changed, fac:   F   F   0.81666667E+00
(PID.TID 0000.0001)  exf_GetFFieldsRec:      count0, count1:   1   2
(PID.TID 0000.0001) 
(PID.TID 0000.0001) 
(PID.TID 0000.0001)  exf_GetFFieldsRec: first, changed, fac:   F   F   0.81666667E+00
(PID.TID 0000.0001)  exf_GetFFieldsRec:      count0, count1:   1   2
(PID.TID 0000.0001) 
 cg2d: Sum(rhs),rhsMax =  -6.59472476627343E-13  8.10142812584004E+00
(PID.TID 0000.0001)                    cg2d_init_res =    1.18030465785326E+00
(PID.TID 0000.0001)                       cg2d_iters =    25
(PID.TID 0000.0001)                         cg2d_res =    8.14130442883746E-14
(PID.TID 0000.0001) // =======================================================
(PID.TID 0000.0001) // Begin MONITOR dynamic field statistics
(PID.TID 0000.0001) // =======================================================
(PID.TID 0000.0001) %MON time_tsnumber                =                    12
(PID.TID 0000.0001) %MON time_secondsf                =   5.1840000000000E+05
(PID.TID 0000.0001) %MON dynstat_eta_max              =   9.9606593766119E-01
(PID.TID 0000.0001) %MON dynstat_eta_min              =  -1.0101932340734E+00
(PID.TID 0000.0001) %MON dynstat_eta_mean             =   5.3818540322036E-16
(PID.TID 0000.0001) %MON dynstat_eta_sd               =   3.1975539509968E-01
(PID.TID 0000.0001) %MON dynstat_eta_del2             =   2.3695659526124E-02
(PID.TID 0000.0001) %MON dynstat_uvel_max             =   1.2027871287687E-01
(PID.TID 0000.0001) %MON dynstat_uvel_min             =  -1.3690845243060E-01
(PID.TID 0000.0001) %MON dynstat_uvel_mean            =  -9.3019054627342E-03
(PID.TID 0000.0001) %MON dynstat_uvel_sd              =   1.3999909131134E-02
(PID.TID 0000.0001) %MON dynstat_uvel_del2            =   3.2413066100148E-03
(PID.TID 0000.0001) %MON dynstat_vvel_max             =   1.0916495692706E-01
(PID.TID 0000.0001) %MON dynstat_vvel_min             =  -1.0308451571934E-01
(PID.TID 0000.0001) %MON dynstat_vvel_mean            =   4.7943896967420E-03
(PID.TID 0000.0001) %MON dynstat_vvel_sd              =   1.5293521390284E-02
(PID.TID 0000.0001) %MON dynstat_vvel_del2            =   3.4242427719755E-03
(PID.TID 0000.0001) %MON dynstat_wvel_max             =   2.6658829558110E-04
(PID.TID 0000.0001) %MON dynstat_wvel_min             =  -3.5754795004956E-04
(PID.TID 0000.0001) %MON dynstat_wvel_mean            =  -4.4938729371949E-23
(PID.TID 0000.0001) %MON dynstat_wvel_sd              =   3.6192620858475E-05
(PID.TID 0000.0001) %MON dynstat_wvel_del2            =   1.2476798445480E-05
(PID.TID 0000.0001) %MON dynstat_theta_max            =   2.9636357585991E+01
(PID.TID 0000.0001) %MON dynstat_theta_min            =  -2.1424285537946E+00
(PID.TID 0000.0001) %MON dynstat_theta_mean           =   3.6021251791430E+00
(PID.TID 0000.0001) %MON dynstat_theta_sd             =   4.3780905679669E+00
(PID.TID 0000.0001) %MON dynstat_theta_del2           =   1.4287715869385E-01
(PID.TID 0000.0001) %MON dynstat_salt_max             =   3.7429175955226E+01
(PID.TID 0000.0001) %MON dynstat_salt_min             =   2.9788211761173E+01
(PID.TID 0000.0001) %MON dynstat_salt_mean            =   3.4716562993068E+01
(PID.TID 0000.0001) %MON dynstat_salt_sd              =   2.9612580252015E-01
(PID.TID 0000.0001) %MON dynstat_salt_del2            =   2.6120197027547E-02
(PID.TID 0000.0001) %MON advcfl_uvel_max              =   2.1131709740710E-02
(PID.TID 0000.0001) %MON advcfl_vvel_max              =   1.0604500167755E-02
(PID.TID 0000.0001) %MON advcfl_wvel_max              =   2.0104006535930E-01
(PID.TID 0000.0001) %MON advcfl_W_hf_max              =   1.7534755362569E-01
(PID.TID 0000.0001) %MON pe_b_mean                    =   1.3083289819373E-04
(PID.TID 0000.0001) %MON ke_max                       =   7.5715313689241E-03
(PID.TID 0000.0001) %MON ke_mean                      =   2.4367821118638E-04
(PID.TID 0000.0001) %MON ke_vol                       =   1.3226782436723E+18
(PID.TID 0000.0001) %MON vort_r_min                   =  -3.3984562678282E-07
(PID.TID 0000.0001) %MON vort_r_max                   =   6.0750064830331E-07
(PID.TID 0000.0001) %MON vort_a_mean                  =  -2.5205769768159E-05
(PID.TID 0000.0001) %MON vort_a_sd                    =   7.3401507663475E-05
(PID.TID 0000.0001) %MON vort_p_mean                  =  -3.1758670029609E-05
(PID.TID 0000.0001) %MON vort_p_sd                    =   1.3126080315255E-04
(PID.TID 0000.0001) %MON surfExpan_theta_mean         =   1.4167110407351E-04
(PID.TID 0000.0001) %MON surfExpan_salt_mean          =   1.0148369312427E-05
(PID.TID 0000.0001) // =======================================================
(PID.TID 0000.0001) // End MONITOR dynamic field statistics
(PID.TID 0000.0001) // =======================================================
(PID.TID 0000.0001) 
(PID.TID 0000.0001)  exf_GetFFieldsRec: first, changed, fac:   F   F   0.80000000E+00
(PID.TID 0000.0001)  exf_GetFFieldsRec:      count0, count1:   1   2
(PID.TID 0000.0001) 
(PID.TID 0000.0001) 
(PID.TID 0000.0001)  exf_GetFFieldsRec: first, changed, fac:   F   F   0.80000000E+00
(PID.TID 0000.0001)  exf_GetFFieldsRec:      count0, count1:   1   2
(PID.TID 0000.0001) 
(PID.TID 0000.0001) 
(PID.TID 0000.0001)  exf_GetFFieldsRec: first, changed, fac:   F   F   0.80000000E+00
(PID.TID 0000.0001)  exf_GetFFieldsRec:      count0, count1:   1   2
(PID.TID 0000.0001) 
(PID.TID 0000.0001) 
(PID.TID 0000.0001)  exf_GetFFieldsRec: first, changed, fac:   F   F   0.80000000E+00
(PID.TID 0000.0001)  exf_GetFFieldsRec:      count0, count1:   1   2
(PID.TID 0000.0001) 
(PID.TID 0000.0001) 
(PID.TID 0000.0001)  exf_GetFFieldsRec: first, changed, fac:   F   F   0.80000000E+00
(PID.TID 0000.0001)  exf_GetFFieldsRec:      count0, count1:   1   2
(PID.TID 0000.0001) 
 cg2d: Sum(rhs),rhsMax =  -7.67613240765935E-13  8.56259552625104E+00
(PID.TID 0000.0001)                    cg2d_init_res =    1.07730189006604E+00
(PID.TID 0000.0001)                       cg2d_iters =    25
(PID.TID 0000.0001)                         cg2d_res =    7.20982816971355E-14
(PID.TID 0000.0001) // =======================================================
(PID.TID 0000.0001) // Begin MONITOR dynamic field statistics
(PID.TID 0000.0001) // =======================================================
(PID.TID 0000.0001) %MON time_tsnumber                =                    13
(PID.TID 0000.0001) %MON time_secondsf                =   5.6160000000000E+05
(PID.TID 0000.0001) %MON dynstat_eta_max              =   1.0476056196356E+00
(PID.TID 0000.0001) %MON dynstat_eta_min              =  -1.0886900589556E+00
(PID.TID 0000.0001) %MON dynstat_eta_mean             =   4.7441914360124E-16
(PID.TID 0000.0001) %MON dynstat_eta_sd               =   3.3573255255989E-01
(PID.TID 0000.0001) %MON dynstat_eta_del2             =   2.2900054042837E-02
(PID.TID 0000.0001) %MON dynstat_uvel_max             =   1.2721254110855E-01
(PID.TID 0000.0001) %MON dynstat_uvel_min             =  -1.3644116204533E-01
(PID.TID 0000.0001) %MON dynstat_uvel_mean            =  -9.8072073123468E-03
(PID.TID 0000.0001) %MON dynstat_uvel_sd              =   1.4969317407805E-02
(PID.TID 0000.0001) %MON dynstat_uvel_del2            =   3.3496044898915E-03
(PID.TID 0000.0001) %MON dynstat_vvel_max             =   1.1148307918552E-01
(PID.TID 0000.0001) %MON dynstat_vvel_min             =  -1.0506643256799E-01
(PID.TID 0000.0001) %MON dynstat_vvel_mean            =   4.5060557702239E-03
(PID.TID 0000.0001) %MON dynstat_vvel_sd              =   1.5024302229771E-02
(PID.TID 0000.0001) %MON dynstat_vvel_del2            =   3.4683788215599E-03
(PID.TID 0000.0001) %MON dynstat_wvel_max             =   2.5874487946820E-04
(PID.TID 0000.0001) %MON dynstat_wvel_min             =  -3.6682495687587E-04
(PID.TID 0000.0001) %MON dynstat_wvel_mean            =  -1.1808813290172E-21
(PID.TID 0000.0001) %MON dynstat_wvel_sd              =   3.5492220297273E-05
(PID.TID 0000.0001) %MON dynstat_wvel_del2            =   1.2213930992538E-05
(PID.TID 0000.0001) %MON dynstat_theta_max            =   2.9604705768854E+01
(PID.TID 0000.0001) %MON dynstat_theta_min            =  -2.1527460942322E+00
(PID.TID 0000.0001) %MON dynstat_theta_mean           =   3.6006482680054E+00
(PID.TID 0000.0001) %MON dynstat_theta_sd             =   4.3740889614602E+00
(PID.TID 0000.0001) %MON dynstat_theta_del2           =   1.4236231092327E-01
(PID.TID 0000.0001) %MON dynstat_salt_max             =   3.7427121770852E+01
(PID.TID 0000.0001) %MON dynstat_salt_min             =   2.9789505720725E+01
(PID.TID 0000.0001) %MON dynstat_salt_mean            =   3.4716456914244E+01
(PID.TID 0000.0001) %MON dynstat_salt_sd              =   2.9609696503029E-01
(PID.TID 0000.0001) %MON dynstat_salt_del2            =   2.6097968668040E-02
(PID.TID 0000.0001) %MON advcfl_uvel_max              =   2.4482555374656E-02
(PID.TID 0000.0001) %MON advcfl_vvel_max              =   1.0829687156058E-02
(PID.TID 0000.0001) %MON advcfl_wvel_max              =   2.0185310877271E-01
(PID.TID 0000.0001) %MON advcfl_W_hf_max              =   1.7717322261230E-01
(PID.TID 0000.0001) %MON pe_b_mean                    =   1.4423415181287E-04
(PID.TID 0000.0001) %MON ke_max                       =   8.5728889032206E-03
(PID.TID 0000.0001) %MON ke_mean                      =   2.5595530939337E-04
(PID.TID 0000.0001) %MON ke_vol                       =   1.3226782436723E+18
(PID.TID 0000.0001) %MON vort_r_min                   =  -3.3388068998698E-07
(PID.TID 0000.0001) %MON vort_r_max                   =   6.2309708480540E-07
(PID.TID 0000.0001) %MON vort_a_mean                  =  -2.5205769794914E-05
(PID.TID 0000.0001) %MON vort_a_sd                    =   7.3401405460714E-05
(PID.TID 0000.0001) %MON vort_p_mean                  =  -3.1758670063319E-05
(PID.TID 0000.0001) %MON vort_p_sd                    =   1.3126037398899E-04
(PID.TID 0000.0001) %MON surfExpan_theta_mean         =   1.2922133870716E-04
(PID.TID 0000.0001) %MON surfExpan_salt_mean          =   8.8156842805259E-06
(PID.TID 0000.0001) // =======================================================
(PID.TID 0000.0001) // End MONITOR dynamic field statistics
(PID.TID 0000.0001) // =======================================================
(PID.TID 0000.0001) 
(PID.TID 0000.0001)  exf_GetFFieldsRec: first, changed, fac:   F   F   0.78333333E+00
(PID.TID 0000.0001)  exf_GetFFieldsRec:      count0, count1:   1   2
(PID.TID 0000.0001) 
(PID.TID 0000.0001) 
(PID.TID 0000.0001)  exf_GetFFieldsRec: first, changed, fac:   F   F   0.78333333E+00
(PID.TID 0000.0001)  exf_GetFFieldsRec:      count0, count1:   1   2
(PID.TID 0000.0001) 
(PID.TID 0000.0001) 
(PID.TID 0000.0001)  exf_GetFFieldsRec: first, changed, fac:   F   F   0.78333333E+00
(PID.TID 0000.0001)  exf_GetFFieldsRec:      count0, count1:   1   2
(PID.TID 0000.0001) 
(PID.TID 0000.0001) 
(PID.TID 0000.0001)  exf_GetFFieldsRec: first, changed, fac:   F   F   0.78333333E+00
(PID.TID 0000.0001)  exf_GetFFieldsRec:      count0, count1:   1   2
(PID.TID 0000.0001) 
(PID.TID 0000.0001) 
(PID.TID 0000.0001)  exf_GetFFieldsRec: first, changed, fac:   F   F   0.78333333E+00
(PID.TID 0000.0001)  exf_GetFFieldsRec:      count0, count1:   1   2
(PID.TID 0000.0001) 
 cg2d: Sum(rhs),rhsMax =  -7.94462206524932E-13  9.25866165220767E+00
(PID.TID 0000.0001)                    cg2d_init_res =    9.64453479379902E-01
(PID.TID 0000.0001)                       cg2d_iters =    25
(PID.TID 0000.0001)                         cg2d_res =    6.14561661502699E-14
(PID.TID 0000.0001) // =======================================================
(PID.TID 0000.0001) // Begin MONITOR dynamic field statistics
(PID.TID 0000.0001) // =======================================================
(PID.TID 0000.0001) %MON time_tsnumber                =                    14
(PID.TID 0000.0001) %MON time_secondsf                =   6.0480000000000E+05
(PID.TID 0000.0001) %MON dynstat_eta_max              =   1.1188985844227E+00
(PID.TID 0000.0001) %MON dynstat_eta_min              =  -1.1577657950544E+00
(PID.TID 0000.0001) %MON dynstat_eta_mean             =   4.5999933357183E-16
(PID.TID 0000.0001) %MON dynstat_eta_sd               =   3.4919460423135E-01
(PID.TID 0000.0001) %MON dynstat_eta_del2             =   2.2217913308322E-02
(PID.TID 0000.0001) %MON dynstat_uvel_max             =   1.3388780460030E-01
(PID.TID 0000.0001) %MON dynstat_uvel_min             =  -1.3214805101432E-01
(PID.TID 0000.0001) %MON dynstat_uvel_mean            =  -1.0168748409350E-02
(PID.TID 0000.0001) %MON dynstat_uvel_sd              =   1.5822044444066E-02
(PID.TID 0000.0001) %MON dynstat_uvel_del2            =   3.4409441789295E-03
(PID.TID 0000.0001) %MON dynstat_vvel_max             =   1.2320472686374E-01
(PID.TID 0000.0001) %MON dynstat_vvel_min             =  -1.0499207777126E-01
(PID.TID 0000.0001) %MON dynstat_vvel_mean            =   4.1660693975423E-03
(PID.TID 0000.0001) %MON dynstat_vvel_sd              =   1.4717777769289E-02
(PID.TID 0000.0001) %MON dynstat_vvel_del2            =   3.4865723793522E-03
(PID.TID 0000.0001) %MON dynstat_wvel_max             =   2.5649872721670E-04
(PID.TID 0000.0001) %MON dynstat_wvel_min             =  -3.6906913665259E-04
(PID.TID 0000.0001) %MON dynstat_wvel_mean            =  -1.0682769243913E-21
(PID.TID 0000.0001) %MON dynstat_wvel_sd              =   3.4553138161567E-05
(PID.TID 0000.0001) %MON dynstat_wvel_del2            =   1.1827922599058E-05
(PID.TID 0000.0001) %MON dynstat_theta_max            =   2.9571250448196E+01
(PID.TID 0000.0001) %MON dynstat_theta_min            =  -2.1563224589588E+00
(PID.TID 0000.0001) %MON dynstat_theta_mean           =   3.5993225970773E+00
(PID.TID 0000.0001) %MON dynstat_theta_sd             =   4.3702715045844E+00
(PID.TID 0000.0001) %MON dynstat_theta_del2           =   1.4191970579226E-01
(PID.TID 0000.0001) %MON dynstat_salt_max             =   3.7425197491743E+01
(PID.TID 0000.0001) %MON dynstat_salt_min             =   2.9790356257326E+01
(PID.TID 0000.0001) %MON dynstat_salt_mean            =   3.4716366670358E+01
(PID.TID 0000.0001) %MON dynstat_salt_sd              =   2.9606400318699E-01
(PID.TID 0000.0001) %MON dynstat_salt_del2            =   2.6081952202570E-02
(PID.TID 0000.0001) %MON advcfl_uvel_max              =   2.6828951654062E-02
(PID.TID 0000.0001) %MON advcfl_vvel_max              =   1.1968351231684E-02
(PID.TID 0000.0001) %MON advcfl_wvel_max              =   1.8713487151811E-01
(PID.TID 0000.0001) %MON advcfl_W_hf_max              =   1.6509637037957E-01
(PID.TID 0000.0001) %MON pe_b_mean                    =   1.5603292463960E-04
(PID.TID 0000.0001) %MON ke_max                       =   9.5472926486392E-03
(PID.TID 0000.0001) %MON ke_mean                      =   2.6574867156995E-04
(PID.TID 0000.0001) %MON ke_vol                       =   1.3226782436723E+18
(PID.TID 0000.0001) %MON vort_r_min                   =  -3.5515300899405E-07
(PID.TID 0000.0001) %MON vort_r_max                   =   6.2160422524007E-07
(PID.TID 0000.0001) %MON vort_a_mean                  =  -2.5205769794080E-05
(PID.TID 0000.0001) %MON vort_a_sd                    =   7.3401328859296E-05
(PID.TID 0000.0001) %MON vort_p_mean                  =  -3.1758670062268E-05
(PID.TID 0000.0001) %MON vort_p_sd                    =   1.3126004429878E-04
(PID.TID 0000.0001) %MON surfExpan_theta_mean         =   1.1566055013711E-04
(PID.TID 0000.0001) %MON surfExpan_salt_mean          =   7.4198150374006E-06
(PID.TID 0000.0001) // =======================================================
(PID.TID 0000.0001) // End MONITOR dynamic field statistics
(PID.TID 0000.0001) // =======================================================
(PID.TID 0000.0001) 
(PID.TID 0000.0001)  exf_GetFFieldsRec: first, changed, fac:   F   F   0.76666667E+00
(PID.TID 0000.0001)  exf_GetFFieldsRec:      count0, count1:   1   2
(PID.TID 0000.0001) 
(PID.TID 0000.0001) 
(PID.TID 0000.0001)  exf_GetFFieldsRec: first, changed, fac:   F   F   0.76666667E+00
(PID.TID 0000.0001)  exf_GetFFieldsRec:      count0, count1:   1   2
(PID.TID 0000.0001) 
(PID.TID 0000.0001) 
(PID.TID 0000.0001)  exf_GetFFieldsRec: first, changed, fac:   F   F   0.76666667E+00
(PID.TID 0000.0001)  exf_GetFFieldsRec:      count0, count1:   1   2
(PID.TID 0000.0001) 
(PID.TID 0000.0001) 
(PID.TID 0000.0001)  exf_GetFFieldsRec: first, changed, fac:   F   F   0.76666667E+00
(PID.TID 0000.0001)  exf_GetFFieldsRec:      count0, count1:   1   2
(PID.TID 0000.0001) 
(PID.TID 0000.0001) 
(PID.TID 0000.0001)  exf_GetFFieldsRec: first, changed, fac:   F   F   0.76666667E+00
(PID.TID 0000.0001)  exf_GetFFieldsRec:      count0, count1:   1   2
(PID.TID 0000.0001) 
 cg2d: Sum(rhs),rhsMax =  -7.91423567306215E-13  9.76066028244156E+00
(PID.TID 0000.0001)                    cg2d_init_res =    8.89919819652904E-01
(PID.TID 0000.0001)                       cg2d_iters =    25
(PID.TID 0000.0001)                         cg2d_res =    5.28951370061339E-14
(PID.TID 0000.0001) // =======================================================
(PID.TID 0000.0001) // Begin MONITOR dynamic field statistics
(PID.TID 0000.0001) // =======================================================
(PID.TID 0000.0001) %MON time_tsnumber                =                    15
(PID.TID 0000.0001) %MON time_secondsf                =   6.4800000000000E+05
(PID.TID 0000.0001) %MON dynstat_eta_max              =   1.1776753010528E+00
(PID.TID 0000.0001) %MON dynstat_eta_min              =  -1.1930581084648E+00
(PID.TID 0000.0001) %MON dynstat_eta_mean             =   4.6239581273388E-16
(PID.TID 0000.0001) %MON dynstat_eta_sd               =   3.6015080704621E-01
(PID.TID 0000.0001) %MON dynstat_eta_del2             =   2.1645217127593E-02
(PID.TID 0000.0001) %MON dynstat_uvel_max             =   1.4349956737181E-01
(PID.TID 0000.0001) %MON dynstat_uvel_min             =  -1.3123380156206E-01
(PID.TID 0000.0001) %MON dynstat_uvel_mean            =  -1.0381721787311E-02
(PID.TID 0000.0001) %MON dynstat_uvel_sd              =   1.6554993224462E-02
(PID.TID 0000.0001) %MON dynstat_uvel_del2            =   3.5140386461558E-03
(PID.TID 0000.0001) %MON dynstat_vvel_max             =   1.3640469383179E-01
(PID.TID 0000.0001) %MON dynstat_vvel_min             =  -1.0645421241291E-01
(PID.TID 0000.0001) %MON dynstat_vvel_mean            =   3.7975507564528E-03
(PID.TID 0000.0001) %MON dynstat_vvel_sd              =   1.4414986285593E-02
(PID.TID 0000.0001) %MON dynstat_vvel_del2            =   3.4867328839171E-03
(PID.TID 0000.0001) %MON dynstat_wvel_max             =   2.5423534866550E-04
(PID.TID 0000.0001) %MON dynstat_wvel_min             =  -3.6478081059268E-04
(PID.TID 0000.0001) %MON dynstat_wvel_mean            =  -1.7146632777375E-22
(PID.TID 0000.0001) %MON dynstat_wvel_sd              =   3.3452704256037E-05
(PID.TID 0000.0001) %MON dynstat_wvel_del2            =   1.1347823353451E-05
(PID.TID 0000.0001) %MON dynstat_theta_max            =   2.9539301962658E+01
(PID.TID 0000.0001) %MON dynstat_theta_min            =  -2.1518848568252E+00
(PID.TID 0000.0001) %MON dynstat_theta_mean           =   3.5981573093012E+00
(PID.TID 0000.0001) %MON dynstat_theta_sd             =   4.3666801553190E+00
(PID.TID 0000.0001) %MON dynstat_theta_del2           =   1.4152540928144E-01
(PID.TID 0000.0001) %MON dynstat_salt_max             =   3.7423386670294E+01
(PID.TID 0000.0001) %MON dynstat_salt_min             =   2.9790816883879E+01
(PID.TID 0000.0001) %MON dynstat_salt_mean            =   3.4716292571130E+01
(PID.TID 0000.0001) %MON dynstat_salt_sd              =   2.9602825229711E-01
(PID.TID 0000.0001) %MON dynstat_salt_del2            =   2.6072238692261E-02
(PID.TID 0000.0001) %MON advcfl_uvel_max              =   2.7829471303825E-02
(PID.TID 0000.0001) %MON advcfl_vvel_max              =   1.3250622171621E-02
(PID.TID 0000.0001) %MON advcfl_wvel_max              =   1.5744925142569E-01
(PID.TID 0000.0001) %MON advcfl_W_hf_max              =   1.3958659590675E-01
(PID.TID 0000.0001) %MON pe_b_mean                    =   1.6597779272782E-04
(PID.TID 0000.0001) %MON ke_max                       =   1.0472470537267E-02
(PID.TID 0000.0001) %MON ke_mean                      =   2.7324055792795E-04
(PID.TID 0000.0001) %MON ke_vol                       =   1.3226782436723E+18
(PID.TID 0000.0001) %MON vort_r_min                   =  -3.7773510457464E-07
(PID.TID 0000.0001) %MON vort_r_max                   =   6.0330247646860E-07
(PID.TID 0000.0001) %MON vort_a_mean                  =  -2.5205769767647E-05
(PID.TID 0000.0001) %MON vort_a_sd                    =   7.3401279062937E-05
(PID.TID 0000.0001) %MON vort_p_mean                  =  -3.1758670028964E-05
(PID.TID 0000.0001) %MON vort_p_sd                    =   1.3125982530554E-04
(PID.TID 0000.0001) %MON surfExpan_theta_mean         =   1.0141250624497E-04
(PID.TID 0000.0001) %MON surfExpan_salt_mean          =   6.0053941621039E-06
(PID.TID 0000.0001) // =======================================================
(PID.TID 0000.0001) // End MONITOR dynamic field statistics
(PID.TID 0000.0001) // =======================================================
(PID.TID 0000.0001) 
(PID.TID 0000.0001)  exf_GetFFieldsRec: first, changed, fac:   F   F   0.75000000E+00
(PID.TID 0000.0001)  exf_GetFFieldsRec:      count0, count1:   1   2
(PID.TID 0000.0001) 
(PID.TID 0000.0001) 
(PID.TID 0000.0001)  exf_GetFFieldsRec: first, changed, fac:   F   F   0.75000000E+00
(PID.TID 0000.0001)  exf_GetFFieldsRec:      count0, count1:   1   2
(PID.TID 0000.0001) 
(PID.TID 0000.0001) 
(PID.TID 0000.0001)  exf_GetFFieldsRec: first, changed, fac:   F   F   0.75000000E+00
(PID.TID 0000.0001)  exf_GetFFieldsRec:      count0, count1:   1   2
(PID.TID 0000.0001) 
(PID.TID 0000.0001) 
(PID.TID 0000.0001)  exf_GetFFieldsRec: first, changed, fac:   F   F   0.75000000E+00
(PID.TID 0000.0001)  exf_GetFFieldsRec:      count0, count1:   1   2
(PID.TID 0000.0001) 
(PID.TID 0000.0001) 
(PID.TID 0000.0001)  exf_GetFFieldsRec: first, changed, fac:   F   F   0.75000000E+00
(PID.TID 0000.0001)  exf_GetFFieldsRec:      count0, count1:   1   2
(PID.TID 0000.0001) 
 cg2d: Sum(rhs),rhsMax =  -7.53415017006043E-13  1.00535722817835E+01
(PID.TID 0000.0001)                    cg2d_init_res =    8.44734309119518E-01
(PID.TID 0000.0001)                       cg2d_iters =    25
(PID.TID 0000.0001)                         cg2d_res =    4.55634222996191E-14
(PID.TID 0000.0001) // =======================================================
(PID.TID 0000.0001) // Begin MONITOR dynamic field statistics
(PID.TID 0000.0001) // =======================================================
(PID.TID 0000.0001) %MON time_tsnumber                =                    16
(PID.TID 0000.0001) %MON time_secondsf                =   6.9120000000000E+05
(PID.TID 0000.0001) %MON dynstat_eta_max              =   1.2119611005489E+00
(PID.TID 0000.0001) %MON dynstat_eta_min              =  -1.1863858817982E+00
(PID.TID 0000.0001) %MON dynstat_eta_mean             =   4.3958595180817E-16
(PID.TID 0000.0001) %MON dynstat_eta_sd               =   3.6869402144501E-01
(PID.TID 0000.0001) %MON dynstat_eta_del2             =   2.1164567717861E-02
(PID.TID 0000.0001) %MON dynstat_uvel_max             =   1.5231580575991E-01
(PID.TID 0000.0001) %MON dynstat_uvel_min             =  -1.3242159775719E-01
(PID.TID 0000.0001) %MON dynstat_uvel_mean            =  -1.0447215982951E-02
(PID.TID 0000.0001) %MON dynstat_uvel_sd              =   1.7169424523674E-02
(PID.TID 0000.0001) %MON dynstat_uvel_del2            =   3.5723029853308E-03
(PID.TID 0000.0001) %MON dynstat_vvel_max             =   1.4652309557820E-01
(PID.TID 0000.0001) %MON dynstat_vvel_min             =  -1.0855348019898E-01
(PID.TID 0000.0001) %MON dynstat_vvel_mean            =   3.4232256493141E-03
(PID.TID 0000.0001) %MON dynstat_vvel_sd              =   1.4147234071503E-02
(PID.TID 0000.0001) %MON dynstat_vvel_del2            =   3.4727686071830E-03
(PID.TID 0000.0001) %MON dynstat_wvel_max             =   2.6185564644931E-04
(PID.TID 0000.0001) %MON dynstat_wvel_min             =  -3.5700735700177E-04
(PID.TID 0000.0001) %MON dynstat_wvel_mean            =   7.0170162679399E-22
(PID.TID 0000.0001) %MON dynstat_wvel_sd              =   3.2264340652074E-05
(PID.TID 0000.0001) %MON dynstat_wvel_del2            =   1.0812113574326E-05
(PID.TID 0000.0001) %MON dynstat_theta_max            =   2.9516037214731E+01
(PID.TID 0000.0001) %MON dynstat_theta_min            =  -2.1403436253382E+00
(PID.TID 0000.0001) %MON dynstat_theta_mean           =   3.5971572681879E+00
(PID.TID 0000.0001) %MON dynstat_theta_sd             =   4.3633542461498E+00
(PID.TID 0000.0001) %MON dynstat_theta_del2           =   1.4117088801291E-01
(PID.TID 0000.0001) %MON dynstat_salt_max             =   3.7423035423604E+01
(PID.TID 0000.0001) %MON dynstat_salt_min             =   2.9790960022729E+01
(PID.TID 0000.0001) %MON dynstat_salt_mean            =   3.4716234519559E+01
(PID.TID 0000.0001) %MON dynstat_salt_sd              =   2.9599119349266E-01
(PID.TID 0000.0001) %MON dynstat_salt_del2            =   2.6066850445841E-02
(PID.TID 0000.0001) %MON advcfl_uvel_max              =   2.7245983258573E-02
(PID.TID 0000.0001) %MON advcfl_vvel_max              =   1.4233543761458E-02
(PID.TID 0000.0001) %MON advcfl_wvel_max              =   1.6556227540191E-01
(PID.TID 0000.0001) %MON advcfl_W_hf_max              =   1.3705017672159E-01
(PID.TID 0000.0001) %MON pe_b_mean                    =   1.7394557727866E-04
(PID.TID 0000.0001) %MON ke_max                       =   1.1330996588769E-02
(PID.TID 0000.0001) %MON ke_mean                      =   2.7862754010376E-04
(PID.TID 0000.0001) %MON ke_vol                       =   1.3226782436723E+18
(PID.TID 0000.0001) %MON vort_r_min                   =  -3.9668124370783E-07
(PID.TID 0000.0001) %MON vort_r_max                   =   5.6920722441626E-07
(PID.TID 0000.0001) %MON vort_a_mean                  =  -2.5205769720639E-05
(PID.TID 0000.0001) %MON vort_a_sd                    =   7.3401256245607E-05
(PID.TID 0000.0001) %MON vort_p_mean                  =  -3.1758669969735E-05
(PID.TID 0000.0001) %MON vort_p_sd                    =   1.3125972052876E-04
(PID.TID 0000.0001) %MON surfExpan_theta_mean         =   8.6865662464657E-05
(PID.TID 0000.0001) %MON surfExpan_salt_mean          =   4.6092128194447E-06
(PID.TID 0000.0001) // =======================================================
(PID.TID 0000.0001) // End MONITOR dynamic field statistics
(PID.TID 0000.0001) // =======================================================
(PID.TID 0000.0001) 
(PID.TID 0000.0001)  exf_GetFFieldsRec: first, changed, fac:   F   F   0.73333333E+00
(PID.TID 0000.0001)  exf_GetFFieldsRec:      count0, count1:   1   2
(PID.TID 0000.0001) 
(PID.TID 0000.0001) 
(PID.TID 0000.0001)  exf_GetFFieldsRec: first, changed, fac:   F   F   0.73333333E+00
(PID.TID 0000.0001)  exf_GetFFieldsRec:      count0, count1:   1   2
(PID.TID 0000.0001) 
(PID.TID 0000.0001) 
(PID.TID 0000.0001)  exf_GetFFieldsRec: first, changed, fac:   F   F   0.73333333E+00
(PID.TID 0000.0001)  exf_GetFFieldsRec:      count0, count1:   1   2
(PID.TID 0000.0001) 
(PID.TID 0000.0001) 
(PID.TID 0000.0001)  exf_GetFFieldsRec: first, changed, fac:   F   F   0.73333333E+00
(PID.TID 0000.0001)  exf_GetFFieldsRec:      count0, count1:   1   2
(PID.TID 0000.0001) 
(PID.TID 0000.0001) 
(PID.TID 0000.0001)  exf_GetFFieldsRec: first, changed, fac:   F   F   0.73333333E+00
(PID.TID 0000.0001)  exf_GetFFieldsRec:      count0, count1:   1   2
(PID.TID 0000.0001) 
 cg2d: Sum(rhs),rhsMax =  -6.93796013478618E-13  1.01341524613692E+01
(PID.TID 0000.0001)                    cg2d_init_res =    8.22638857555917E-01
(PID.TID 0000.0001)                       cg2d_iters =    24
(PID.TID 0000.0001)                         cg2d_res =    6.74044484851022E-14
(PID.TID 0000.0001) // =======================================================
(PID.TID 0000.0001) // Begin MONITOR dynamic field statistics
(PID.TID 0000.0001) // =======================================================
(PID.TID 0000.0001) %MON time_tsnumber                =                    17
(PID.TID 0000.0001) %MON time_secondsf                =   7.3440000000000E+05
(PID.TID 0000.0001) %MON dynstat_eta_max              =   1.2215039182739E+00
(PID.TID 0000.0001) %MON dynstat_eta_min              =  -1.1605147814002E+00
(PID.TID 0000.0001) %MON dynstat_eta_mean             =   4.3352236571819E-16
(PID.TID 0000.0001) %MON dynstat_eta_sd               =   3.7498760833546E-01
(PID.TID 0000.0001) %MON dynstat_eta_del2             =   2.0719315778767E-02
(PID.TID 0000.0001) %MON dynstat_uvel_max             =   1.6017715764666E-01
(PID.TID 0000.0001) %MON dynstat_uvel_min             =  -1.3038222542765E-01
(PID.TID 0000.0001) %MON dynstat_uvel_mean            =  -1.0371636888930E-02
(PID.TID 0000.0001) %MON dynstat_uvel_sd              =   1.7670169182988E-02
(PID.TID 0000.0001) %MON dynstat_uvel_del2            =   3.6184104597069E-03
(PID.TID 0000.0001) %MON dynstat_vvel_max             =   1.5276118978594E-01
(PID.TID 0000.0001) %MON dynstat_vvel_min             =  -1.0893867787085E-01
(PID.TID 0000.0001) %MON dynstat_vvel_mean            =   3.0641147247463E-03
(PID.TID 0000.0001) %MON dynstat_vvel_sd              =   1.3934124109063E-02
(PID.TID 0000.0001) %MON dynstat_vvel_del2            =   3.4520104665411E-03
(PID.TID 0000.0001) %MON dynstat_wvel_max             =   2.6720024256545E-04
(PID.TID 0000.0001) %MON dynstat_wvel_min             =  -3.4633058842595E-04
(PID.TID 0000.0001) %MON dynstat_wvel_mean            =  -1.1954661744106E-21
(PID.TID 0000.0001) %MON dynstat_wvel_sd              =   3.1056802797669E-05
(PID.TID 0000.0001) %MON dynstat_wvel_del2            =   1.0261134978956E-05
(PID.TID 0000.0001) %MON dynstat_theta_max            =   2.9480086929251E+01
(PID.TID 0000.0001) %MON dynstat_theta_min            =  -2.1226175264274E+00
(PID.TID 0000.0001) %MON dynstat_theta_mean           =   3.5963231875689E+00
(PID.TID 0000.0001) %MON dynstat_theta_sd             =   4.3603290782862E+00
(PID.TID 0000.0001) %MON dynstat_theta_del2           =   1.4086782734509E-01
(PID.TID 0000.0001) %MON dynstat_salt_max             =   3.7423458560951E+01
(PID.TID 0000.0001) %MON dynstat_salt_min             =   2.9790872260479E+01
(PID.TID 0000.0001) %MON dynstat_salt_mean            =   3.4716192057207E+01
(PID.TID 0000.0001) %MON dynstat_salt_sd              =   2.9595423157010E-01
(PID.TID 0000.0001) %MON dynstat_salt_del2            =   2.6065758691215E-02
(PID.TID 0000.0001) %MON advcfl_uvel_max              =   2.4978207300312E-02
(PID.TID 0000.0001) %MON advcfl_vvel_max              =   1.4839524590239E-02
(PID.TID 0000.0001) %MON advcfl_wvel_max              =   1.7374288650827E-01
(PID.TID 0000.0001) %MON advcfl_W_hf_max              =   1.4503834482552E-01
(PID.TID 0000.0001) %MON pe_b_mean                    =   1.7993474515454E-04
(PID.TID 0000.0001) %MON ke_max                       =   1.2111532551146E-02
(PID.TID 0000.0001) %MON ke_mean                      =   2.8210599233258E-04
(PID.TID 0000.0001) %MON ke_vol                       =   1.3226782436723E+18
(PID.TID 0000.0001) %MON vort_r_min                   =  -4.1799934221137E-07
(PID.TID 0000.0001) %MON vort_r_max                   =   5.2096619958207E-07
(PID.TID 0000.0001) %MON vort_a_mean                  =  -2.5205769660043E-05
(PID.TID 0000.0001) %MON vort_a_sd                    =   7.3401259631960E-05
(PID.TID 0000.0001) %MON vort_p_mean                  =  -3.1758669893386E-05
(PID.TID 0000.0001) %MON vort_p_sd                    =   1.3125972616621E-04
(PID.TID 0000.0001) %MON surfExpan_theta_mean         =   7.2378347934560E-05
(PID.TID 0000.0001) %MON surfExpan_salt_mean          =   3.2614117914974E-06
(PID.TID 0000.0001) // =======================================================
(PID.TID 0000.0001) // End MONITOR dynamic field statistics
(PID.TID 0000.0001) // =======================================================
(PID.TID 0000.0001) 
(PID.TID 0000.0001)  exf_GetFFieldsRec: first, changed, fac:   F   F   0.71666667E+00
(PID.TID 0000.0001)  exf_GetFFieldsRec:      count0, count1:   1   2
(PID.TID 0000.0001) 
(PID.TID 0000.0001) 
(PID.TID 0000.0001)  exf_GetFFieldsRec: first, changed, fac:   F   F   0.71666667E+00
(PID.TID 0000.0001)  exf_GetFFieldsRec:      count0, count1:   1   2
(PID.TID 0000.0001) 
(PID.TID 0000.0001) 
(PID.TID 0000.0001)  exf_GetFFieldsRec: first, changed, fac:   F   F   0.71666667E+00
(PID.TID 0000.0001)  exf_GetFFieldsRec:      count0, count1:   1   2
(PID.TID 0000.0001) 
(PID.TID 0000.0001) 
(PID.TID 0000.0001)  exf_GetFFieldsRec: first, changed, fac:   F   F   0.71666667E+00
(PID.TID 0000.0001)  exf_GetFFieldsRec:      count0, count1:   1   2
(PID.TID 0000.0001) 
(PID.TID 0000.0001) 
(PID.TID 0000.0001)  exf_GetFFieldsRec: first, changed, fac:   F   F   0.71666667E+00
(PID.TID 0000.0001)  exf_GetFFieldsRec:      count0, count1:   1   2
(PID.TID 0000.0001) 
 cg2d: Sum(rhs),rhsMax =  -5.91428978274217E-13  1.00119255893834E+01
(PID.TID 0000.0001)                    cg2d_init_res =    8.19209776289608E-01
(PID.TID 0000.0001)                       cg2d_iters =    25
(PID.TID 0000.0001)                         cg2d_res =    3.14701561875343E-14
(PID.TID 0000.0001) // =======================================================
(PID.TID 0000.0001) // Begin MONITOR dynamic field statistics
(PID.TID 0000.0001) // =======================================================
(PID.TID 0000.0001) %MON time_tsnumber                =                    18
(PID.TID 0000.0001) %MON time_secondsf                =   7.7760000000000E+05
(PID.TID 0000.0001) %MON dynstat_eta_max              =   1.2075301790979E+00
(PID.TID 0000.0001) %MON dynstat_eta_min              =  -1.1687930062222E+00
(PID.TID 0000.0001) %MON dynstat_eta_mean             =   2.7608419966419E-16
(PID.TID 0000.0001) %MON dynstat_eta_sd               =   3.7924856002226E-01
(PID.TID 0000.0001) %MON dynstat_eta_del2             =   2.0339915081583E-02
(PID.TID 0000.0001) %MON dynstat_uvel_max             =   1.6694241681484E-01
(PID.TID 0000.0001) %MON dynstat_uvel_min             =  -1.2537782733872E-01
(PID.TID 0000.0001) %MON dynstat_uvel_mean            =  -1.0165841488661E-02
(PID.TID 0000.0001) %MON dynstat_uvel_sd              =   1.8064614504597E-02
(PID.TID 0000.0001) %MON dynstat_uvel_del2            =   3.6531454133973E-03
(PID.TID 0000.0001) %MON dynstat_vvel_max             =   1.5449415172745E-01
(PID.TID 0000.0001) %MON dynstat_vvel_min             =  -1.1914896273037E-01
(PID.TID 0000.0001) %MON dynstat_vvel_mean            =   2.7384635456151E-03
(PID.TID 0000.0001) %MON dynstat_vvel_sd              =   1.3783505766543E-02
(PID.TID 0000.0001) %MON dynstat_vvel_del2            =   3.4309539239320E-03
(PID.TID 0000.0001) %MON dynstat_wvel_max             =   2.7026901789705E-04
(PID.TID 0000.0001) %MON dynstat_wvel_min             =  -3.3203486965196E-04
(PID.TID 0000.0001) %MON dynstat_wvel_mean            =   5.3663655404996E-22
(PID.TID 0000.0001) %MON dynstat_wvel_sd              =   2.9893306191097E-05
(PID.TID 0000.0001) %MON dynstat_wvel_del2            =   9.7209799477169E-06
(PID.TID 0000.0001) %MON dynstat_theta_max            =   2.9432638605872E+01
(PID.TID 0000.0001) %MON dynstat_theta_min            =  -2.1000681593754E+00
(PID.TID 0000.0001) %MON dynstat_theta_mean           =   3.5956519556673E+00
(PID.TID 0000.0001) %MON dynstat_theta_sd             =   4.3576348667152E+00
(PID.TID 0000.0001) %MON dynstat_theta_del2           =   1.4061627994516E-01
(PID.TID 0000.0001) %MON dynstat_salt_max             =   3.7423393895952E+01
(PID.TID 0000.0001) %MON dynstat_salt_min             =   2.9790649183459E+01
(PID.TID 0000.0001) %MON dynstat_salt_mean            =   3.4716164431895E+01
(PID.TID 0000.0001) %MON dynstat_salt_sd              =   2.9591864785229E-01
(PID.TID 0000.0001) %MON dynstat_salt_del2            =   2.6069591031763E-02
(PID.TID 0000.0001) %MON advcfl_uvel_max              =   2.3848285002454E-02
(PID.TID 0000.0001) %MON advcfl_vvel_max              =   1.5007867946172E-02
(PID.TID 0000.0001) %MON advcfl_wvel_max              =   1.7666724330828E-01
(PID.TID 0000.0001) %MON advcfl_W_hf_max              =   1.4745478290956E-01
(PID.TID 0000.0001) %MON pe_b_mean                    =   1.8404714339515E-04
(PID.TID 0000.0001) %MON ke_max                       =   1.2808834963264E-02
(PID.TID 0000.0001) %MON ke_mean                      =   2.8386700777423E-04
(PID.TID 0000.0001) %MON ke_vol                       =   1.3226782436723E+18
(PID.TID 0000.0001) %MON vort_r_min                   =  -4.4989573555284E-07
(PID.TID 0000.0001) %MON vort_r_max                   =   4.6075840368891E-07
(PID.TID 0000.0001) %MON vort_a_mean                  =  -2.5205769593611E-05
(PID.TID 0000.0001) %MON vort_a_sd                    =   7.3401287634750E-05
(PID.TID 0000.0001) %MON vort_p_mean                  =  -3.1758669809682E-05
(PID.TID 0000.0001) %MON vort_p_sd                    =   1.3125983224627E-04
(PID.TID 0000.0001) %MON surfExpan_theta_mean         =   5.8280275029181E-05
(PID.TID 0000.0001) %MON surfExpan_salt_mean          =   1.9870458789412E-06
(PID.TID 0000.0001) // =======================================================
(PID.TID 0000.0001) // End MONITOR dynamic field statistics
(PID.TID 0000.0001) // =======================================================
(PID.TID 0000.0001) 
(PID.TID 0000.0001)  exf_GetFFieldsRec: first, changed, fac:   F   F   0.70000000E+00
(PID.TID 0000.0001)  exf_GetFFieldsRec:      count0, count1:   1   2
(PID.TID 0000.0001) 
(PID.TID 0000.0001) 
(PID.TID 0000.0001)  exf_GetFFieldsRec: first, changed, fac:   F   F   0.70000000E+00
(PID.TID 0000.0001)  exf_GetFFieldsRec:      count0, count1:   1   2
(PID.TID 0000.0001) 
(PID.TID 0000.0001) 
(PID.TID 0000.0001)  exf_GetFFieldsRec: first, changed, fac:   F   F   0.70000000E+00
(PID.TID 0000.0001)  exf_GetFFieldsRec:      count0, count1:   1   2
(PID.TID 0000.0001) 
(PID.TID 0000.0001) 
(PID.TID 0000.0001)  exf_GetFFieldsRec: first, changed, fac:   F   F   0.70000000E+00
(PID.TID 0000.0001)  exf_GetFFieldsRec:      count0, count1:   1   2
(PID.TID 0000.0001) 
(PID.TID 0000.0001) 
(PID.TID 0000.0001)  exf_GetFFieldsRec: first, changed, fac:   F   F   0.70000000E+00
(PID.TID 0000.0001)  exf_GetFFieldsRec:      count0, count1:   1   2
(PID.TID 0000.0001) 
 cg2d: Sum(rhs),rhsMax =  -6.83677981306967E-13  9.70882059734573E+00
(PID.TID 0000.0001)                    cg2d_init_res =    8.31372061018582E-01
(PID.TID 0000.0001)                       cg2d_iters =    25
(PID.TID 0000.0001)                         cg2d_res =    3.02088676629631E-14
(PID.TID 0000.0001) // =======================================================
(PID.TID 0000.0001) // Begin MONITOR dynamic field statistics
(PID.TID 0000.0001) // =======================================================
(PID.TID 0000.0001) %MON time_tsnumber                =                    19
(PID.TID 0000.0001) %MON time_secondsf                =   8.2080000000000E+05
(PID.TID 0000.0001) %MON dynstat_eta_max              =   1.1726447179577E+00
(PID.TID 0000.0001) %MON dynstat_eta_min              =  -1.1415372665685E+00
(PID.TID 0000.0001) %MON dynstat_eta_mean             =   4.1555329035355E-16
(PID.TID 0000.0001) %MON dynstat_eta_sd               =   3.8172960491428E-01
(PID.TID 0000.0001) %MON dynstat_eta_del2             =   2.0062308363398E-02
(PID.TID 0000.0001) %MON dynstat_uvel_max             =   1.7249335173405E-01
(PID.TID 0000.0001) %MON dynstat_uvel_min             =  -1.3071208930600E-01
(PID.TID 0000.0001) %MON dynstat_uvel_mean            =  -9.8441228706194E-03
(PID.TID 0000.0001) %MON dynstat_uvel_sd              =   1.8361518608525E-02
(PID.TID 0000.0001) %MON dynstat_uvel_del2            =   3.6781986442746E-03
(PID.TID 0000.0001) %MON dynstat_vvel_max             =   1.5131894582119E-01
(PID.TID 0000.0001) %MON dynstat_vvel_min             =  -1.3278719918375E-01
(PID.TID 0000.0001) %MON dynstat_vvel_mean            =   2.4610005478393E-03
(PID.TID 0000.0001) %MON dynstat_vvel_sd              =   1.3693446455280E-02
(PID.TID 0000.0001) %MON dynstat_vvel_del2            =   3.4107932403597E-03
(PID.TID 0000.0001) %MON dynstat_wvel_max             =   2.7120745468595E-04
(PID.TID 0000.0001) %MON dynstat_wvel_min             =  -3.1472362380281E-04
(PID.TID 0000.0001) %MON dynstat_wvel_mean            =   1.0582427626080E-21
(PID.TID 0000.0001) %MON dynstat_wvel_sd              =   2.8829375023510E-05
(PID.TID 0000.0001) %MON dynstat_wvel_del2            =   9.2681130911993E-06
(PID.TID 0000.0001) %MON dynstat_theta_max            =   2.9422629418407E+01
(PID.TID 0000.0001) %MON dynstat_theta_min            =  -2.0876280805279E+00
(PID.TID 0000.0001) %MON dynstat_theta_mean           =   3.5951369082550E+00
(PID.TID 0000.0001) %MON dynstat_theta_sd             =   4.3552954259112E+00
(PID.TID 0000.0001) %MON dynstat_theta_del2           =   1.4038982880007E-01
(PID.TID 0000.0001) %MON dynstat_salt_max             =   3.7422929608253E+01
(PID.TID 0000.0001) %MON dynstat_salt_min             =   2.9790390078202E+01
(PID.TID 0000.0001) %MON dynstat_salt_mean            =   3.4716150642481E+01
(PID.TID 0000.0001) %MON dynstat_salt_sd              =   2.9588550806849E-01
(PID.TID 0000.0001) %MON dynstat_salt_del2            =   2.6077184448357E-02
(PID.TID 0000.0001) %MON advcfl_uvel_max              =   2.4246890093817E-02
(PID.TID 0000.0001) %MON advcfl_vvel_max              =   1.4699422154469E-02
(PID.TID 0000.0001) %MON advcfl_wvel_max              =   1.7370706847598E-01
(PID.TID 0000.0001) %MON advcfl_W_hf_max              =   1.5226594239966E-01
(PID.TID 0000.0001) %MON pe_b_mean                    =   1.8646309381915E-04
(PID.TID 0000.0001) %MON ke_max                       =   1.3592145965295E-02
(PID.TID 0000.0001) %MON ke_mean                      =   2.8409715863603E-04
(PID.TID 0000.0001) %MON ke_vol                       =   1.3226782436723E+18
(PID.TID 0000.0001) %MON vort_r_min                   =  -4.7012107438684E-07
(PID.TID 0000.0001) %MON vort_r_max                   =   4.0355423383339E-07
(PID.TID 0000.0001) %MON vort_a_mean                  =  -2.5205769528759E-05
(PID.TID 0000.0001) %MON vort_a_sd                    =   7.3401338022766E-05
(PID.TID 0000.0001) %MON vort_p_mean                  =  -3.1758669727970E-05
(PID.TID 0000.0001) %MON vort_p_sd                    =   1.3126002437765E-04
(PID.TID 0000.0001) %MON surfExpan_theta_mean         =   4.4878373132520E-05
(PID.TID 0000.0001) %MON surfExpan_salt_mean          =   8.0841063473616E-07
(PID.TID 0000.0001) // =======================================================
(PID.TID 0000.0001) // End MONITOR dynamic field statistics
(PID.TID 0000.0001) // =======================================================
(PID.TID 0000.0001) 
(PID.TID 0000.0001)  exf_GetFFieldsRec: first, changed, fac:   F   F   0.68333333E+00
(PID.TID 0000.0001)  exf_GetFFieldsRec:      count0, count1:   1   2
(PID.TID 0000.0001) 
(PID.TID 0000.0001) 
(PID.TID 0000.0001)  exf_GetFFieldsRec: first, changed, fac:   F   F   0.68333333E+00
(PID.TID 0000.0001)  exf_GetFFieldsRec:      count0, count1:   1   2
(PID.TID 0000.0001) 
(PID.TID 0000.0001) 
(PID.TID 0000.0001)  exf_GetFFieldsRec: first, changed, fac:   F   F   0.68333333E+00
(PID.TID 0000.0001)  exf_GetFFieldsRec:      count0, count1:   1   2
(PID.TID 0000.0001) 
(PID.TID 0000.0001) 
(PID.TID 0000.0001)  exf_GetFFieldsRec: first, changed, fac:   F   F   0.68333333E+00
(PID.TID 0000.0001)  exf_GetFFieldsRec:      count0, count1:   1   2
(PID.TID 0000.0001) 
(PID.TID 0000.0001) 
(PID.TID 0000.0001)  exf_GetFFieldsRec: first, changed, fac:   F   F   0.68333333E+00
(PID.TID 0000.0001)  exf_GetFFieldsRec:      count0, count1:   1   2
(PID.TID 0000.0001) 
 cg2d: Sum(rhs),rhsMax =  -7.30463595426806E-13  9.49563508827145E+00
(PID.TID 0000.0001)                    cg2d_init_res =    8.35371764862897E-01
(PID.TID 0000.0001)                       cg2d_iters =    25
(PID.TID 0000.0001)                         cg2d_res =    3.43602363351449E-14
(PID.TID 0000.0001) // =======================================================
(PID.TID 0000.0001) // Begin MONITOR dynamic field statistics
(PID.TID 0000.0001) // =======================================================
(PID.TID 0000.0001) %MON time_tsnumber                =                    20
(PID.TID 0000.0001) %MON time_secondsf                =   8.6400000000000E+05
(PID.TID 0000.0001) %MON dynstat_eta_max              =   1.1374566329838E+00
(PID.TID 0000.0001) %MON dynstat_eta_min              =  -1.0835209681101E+00
(PID.TID 0000.0001) %MON dynstat_eta_mean             =   4.5622211932066E-16
(PID.TID 0000.0001) %MON dynstat_eta_sd               =   3.8270147755929E-01
(PID.TID 0000.0001) %MON dynstat_eta_del2             =   1.9982567520871E-02
(PID.TID 0000.0001) %MON dynstat_uvel_max             =   1.7673757829802E-01
(PID.TID 0000.0001) %MON dynstat_uvel_min             =  -1.3557861860319E-01
(PID.TID 0000.0001) %MON dynstat_uvel_mean            =  -9.4231716161193E-03
(PID.TID 0000.0001) %MON dynstat_uvel_sd              =   1.8569842295050E-02
(PID.TID 0000.0001) %MON dynstat_uvel_del2            =   3.6932703951509E-03
(PID.TID 0000.0001) %MON dynstat_vvel_max             =   1.4308721354924E-01
(PID.TID 0000.0001) %MON dynstat_vvel_min             =  -1.4378916568920E-01
(PID.TID 0000.0001) %MON dynstat_vvel_mean            =   2.2425347254466E-03
(PID.TID 0000.0001) %MON dynstat_vvel_sd              =   1.3655667366041E-02
(PID.TID 0000.0001) %MON dynstat_vvel_del2            =   3.3951973281945E-03
(PID.TID 0000.0001) %MON dynstat_wvel_max             =   2.7026894634868E-04
(PID.TID 0000.0001) %MON dynstat_wvel_min             =  -2.9483559272641E-04
(PID.TID 0000.0001) %MON dynstat_wvel_mean            =   2.0868504104688E-22
(PID.TID 0000.0001) %MON dynstat_wvel_sd              =   2.7908603965476E-05
(PID.TID 0000.0001) %MON dynstat_wvel_del2            =   8.9377600212778E-06
(PID.TID 0000.0001) %MON dynstat_theta_max            =   2.9410419976472E+01
(PID.TID 0000.0001) %MON dynstat_theta_min            =  -2.0847572128574E+00
(PID.TID 0000.0001) %MON dynstat_theta_mean           =   3.5947681182606E+00
(PID.TID 0000.0001) %MON dynstat_theta_sd             =   4.3533267490952E+00
(PID.TID 0000.0001) %MON dynstat_theta_del2           =   1.4018926384261E-01
(PID.TID 0000.0001) %MON dynstat_salt_max             =   3.7422196434109E+01
(PID.TID 0000.0001) %MON dynstat_salt_min             =   2.9790192769651E+01
(PID.TID 0000.0001) %MON dynstat_salt_mean            =   3.4716149458478E+01
(PID.TID 0000.0001) %MON dynstat_salt_sd              =   2.9585538842166E-01
(PID.TID 0000.0001) %MON dynstat_salt_del2            =   2.6086477929691E-02
(PID.TID 0000.0001) %MON advcfl_uvel_max              =   2.4715225781160E-02
(PID.TID 0000.0001) %MON advcfl_vvel_max              =   1.3967964396224E-02
(PID.TID 0000.0001) %MON advcfl_wvel_max              =   1.6452339890303E-01
(PID.TID 0000.0001) %MON advcfl_W_hf_max              =   1.4666962377572E-01
(PID.TID 0000.0001) %MON pe_b_mean                    =   1.8741376186404E-04
(PID.TID 0000.0001) %MON ke_max                       =   1.4359286930204E-02
(PID.TID 0000.0001) %MON ke_mean                      =   2.8298257072997E-04
(PID.TID 0000.0001) %MON ke_vol                       =   1.3226782436723E+18
(PID.TID 0000.0001) %MON vort_r_min                   =  -4.7742335600101E-07
(PID.TID 0000.0001) %MON vort_r_max                   =   4.1131762143080E-07
(PID.TID 0000.0001) %MON vort_a_mean                  =  -2.5205769471716E-05
(PID.TID 0000.0001) %MON vort_a_sd                    =   7.3401408096219E-05
(PID.TID 0000.0001) %MON vort_p_mean                  =  -3.1758669656097E-05
(PID.TID 0000.0001) %MON vort_p_sd                    =   1.3126028560998E-04
(PID.TID 0000.0001) %MON surfExpan_theta_mean         =   3.2447302347473E-05
(PID.TID 0000.0001) %MON surfExpan_salt_mean          =  -2.5487879974288E-07
(PID.TID 0000.0001) // =======================================================
(PID.TID 0000.0001) // End MONITOR dynamic field statistics
(PID.TID 0000.0001) // =======================================================
(PID.TID 0000.0001) // Time-average data written, t-step        20
(PID.TID 0000.0001) 
(PID.TID 0000.0001) %CHECKPOINT        20 ckptA
(PID.TID 0000.0001)   Seconds in section "ALL                    [THE_MODEL_MAIN]":
(PID.TID 0000.0001)           User time:  3.93000007
(PID.TID 0000.0001)         System time:  0.469999989
(PID.TID 0000.0001)     Wall clock time:  4.40449095
(PID.TID 0000.0001)          No. starts: 1
(PID.TID 0000.0001)           No. stops: 1
(PID.TID 0000.0001)   Seconds in section "INITIALISE_FIXED       [THE_MODEL_MAIN]":
(PID.TID 0000.0001)           User time:  0.100000001
(PID.TID 0000.0001)         System time:  0.040000001
(PID.TID 0000.0001)     Wall clock time:  0.141363978
(PID.TID 0000.0001)          No. starts: 1
(PID.TID 0000.0001)           No. stops: 1
(PID.TID 0000.0001)   Seconds in section "THE_MAIN_LOOP          [THE_MODEL_MAIN]":
(PID.TID 0000.0001)           User time:  3.70999994
(PID.TID 0000.0001)         System time:  0.290000003
(PID.TID 0000.0001)     Wall clock time:  3.996346
(PID.TID 0000.0001)          No. starts: 1
(PID.TID 0000.0001)           No. stops: 1
(PID.TID 0000.0001)   Seconds in section "INITIALISE_VARIA    [THE_MAIN_LOOP]":
(PID.TID 0000.0001)           User time:  0.0299999937
(PID.TID 0000.0001)         System time:  0.0400000028
(PID.TID 0000.0001)     Wall clock time:  0.0667550564
(PID.TID 0000.0001)          No. starts: 1
(PID.TID 0000.0001)           No. stops: 1
(PID.TID 0000.0001)   Seconds in section "WRITE_STATE         [THE_MAIN_LOOP]":
(PID.TID 0000.0001)           User time:  0.0300000012
(PID.TID 0000.0001)         System time:  0.0199999958
(PID.TID 0000.0001)     Wall clock time:  0.0578069687
(PID.TID 0000.0001)          No. starts: 1
(PID.TID 0000.0001)           No. stops: 1
(PID.TID 0000.0001)   Seconds in section "MONITOR             [THE_MAIN_LOOP]":
(PID.TID 0000.0001)           User time:  0.0200000107
(PID.TID 0000.0001)         System time:  0.
(PID.TID 0000.0001)     Wall clock time:  0.0187380314
(PID.TID 0000.0001)          No. starts: 1
(PID.TID 0000.0001)           No. stops: 1
(PID.TID 0000.0001)   Seconds in section "MAIN LOOP           [THE_MAIN_LOOP]":
(PID.TID 0000.0001)           User time:  3.62999994
(PID.TID 0000.0001)         System time:  0.230000004
(PID.TID 0000.0001)     Wall clock time:  3.85292304
(PID.TID 0000.0001)          No. starts: 1
(PID.TID 0000.0001)           No. stops: 1
(PID.TID 0000.0001)   Seconds in section "FORWARD_STEP        [THE_MAIN_LOOP]":
(PID.TID 0000.0001)           User time:  3.62999994
(PID.TID 0000.0001)         System time:  0.230000004
(PID.TID 0000.0001)     Wall clock time:  3.85243213
(PID.TID 0000.0001)          No. starts: 20
(PID.TID 0000.0001)           No. stops: 20
(PID.TID 0000.0001)   Seconds in section "EXF_GETFORCING     [FORWARD_STEP]":
(PID.TID 0000.0001)           User time:  0.0499999672
(PID.TID 0000.0001)         System time:  0.
(PID.TID 0000.0001)     Wall clock time:  0.038716197
(PID.TID 0000.0001)          No. starts: 20
(PID.TID 0000.0001)           No. stops: 20
(PID.TID 0000.0001)   Seconds in section "THERMODYNAMICS      [FORWARD_STEP]":
(PID.TID 0000.0001)           User time:  1.46999998
(PID.TID 0000.0001)         System time:  0.0199999958
(PID.TID 0000.0001)     Wall clock time:  1.50547004
(PID.TID 0000.0001)          No. starts: 20
(PID.TID 0000.0001)           No. stops: 20
(PID.TID 0000.0001)   Seconds in section "BLOCKING_EXCHANGES  [FORWARD_STEP]":
(PID.TID 0000.0001)           User time:  0.0399999619
(PID.TID 0000.0001)         System time:  0.
(PID.TID 0000.0001)     Wall clock time:  0.0272979736
(PID.TID 0000.0001)          No. starts: 40
(PID.TID 0000.0001)           No. stops: 40
(PID.TID 0000.0001)   Seconds in section "DYNAMICS            [FORWARD_STEP]":
(PID.TID 0000.0001)           User time:  1.20000005
(PID.TID 0000.0001)         System time:  0.
(PID.TID 0000.0001)     Wall clock time:  1.19163799
(PID.TID 0000.0001)          No. starts: 20
(PID.TID 0000.0001)           No. stops: 20
(PID.TID 0000.0001)   Seconds in section "SOLVE_FOR_PRESSURE  [FORWARD_STEP]":
(PID.TID 0000.0001)           User time:  0.139999986
(PID.TID 0000.0001)         System time:  0.
(PID.TID 0000.0001)     Wall clock time:  0.154861689
(PID.TID 0000.0001)          No. starts: 20
(PID.TID 0000.0001)           No. stops: 20
(PID.TID 0000.0001)   Seconds in section "THE_CORRECTION_STEP [FORWARD_STEP]":
(PID.TID 0000.0001)           User time:  0.230000019
(PID.TID 0000.0001)         System time:  0.
(PID.TID 0000.0001)     Wall clock time:  0.22874999
(PID.TID 0000.0001)          No. starts: 20
(PID.TID 0000.0001)           No. stops: 20
(PID.TID 0000.0001)   Seconds in section "MONITOR             [FORWARD_STEP]":
(PID.TID 0000.0001)           User time:  0.390000075
(PID.TID 0000.0001)         System time:  0.0100000054
(PID.TID 0000.0001)     Wall clock time:  0.393182158
(PID.TID 0000.0001)          No. starts: 20
(PID.TID 0000.0001)           No. stops: 20
(PID.TID 0000.0001)   Seconds in section "DO_THE_MODEL_IO     [FORWARD_STEP]":
(PID.TID 0000.0001)           User time:  0.109999895
(PID.TID 0000.0001)         System time:  0.200000003
(PID.TID 0000.0001)     Wall clock time:  0.305887222
(PID.TID 0000.0001)          No. starts: 20
(PID.TID 0000.0001)           No. stops: 20
(PID.TID 0000.0001)   Seconds in section "WRITE_CHECKPOINT    [FORWARD_STEP]":
(PID.TID 0000.0001)           User time:  0.
(PID.TID 0000.0001)         System time:  0.
(PID.TID 0000.0001)     Wall clock time:  0.000469088554
(PID.TID 0000.0001)          No. starts: 20
(PID.TID 0000.0001)           No. stops: 20
(PID.TID 0000.0001)   Seconds in section "WRITE_CHECKPOINT       [THE_MODEL_MAIN]":
(PID.TID 0000.0001)           User time:  0.120000124
(PID.TID 0000.0001)         System time:  0.139999986
(PID.TID 0000.0001)     Wall clock time:  0.266668081
(PID.TID 0000.0001)          No. starts: 1
(PID.TID 0000.0001)           No. stops: 1
(PID.TID 0000.0001) // ======================================================
(PID.TID 0000.0001) // Tile <-> Tile communication statistics
(PID.TID 0000.0001) // ======================================================
(PID.TID 0000.0001) // o Tile number: 000001
(PID.TID 0000.0001) //         No. X exchanges =              0
(PID.TID 0000.0001) //            Max. X spins =              0
(PID.TID 0000.0001) //            Min. X spins =     1000000000
(PID.TID 0000.0001) //          Total. X spins =              0
(PID.TID 0000.0001) //            Avg. X spins =       0.00E+00
(PID.TID 0000.0001) //         No. Y exchanges =              0
(PID.TID 0000.0001) //            Max. Y spins =              0
(PID.TID 0000.0001) //            Min. Y spins =     1000000000
(PID.TID 0000.0001) //          Total. Y spins =              0
(PID.TID 0000.0001) //            Avg. Y spins =       0.00E+00
(PID.TID 0000.0001) // o Thread number: 000001
(PID.TID 0000.0001) //            No. barriers =          13550
(PID.TID 0000.0001) //      Max. barrier spins =              1
(PID.TID 0000.0001) //      Min. barrier spins =              1
(PID.TID 0000.0001) //     Total barrier spins =          13550
(PID.TID 0000.0001) //      Avg. barrier spins =       1.00E+00
