(PID.TID 0000.0001) 
(PID.TID 0000.0001) // ======================================================
(PID.TID 0000.0001) //                      MITgcm UV
(PID.TID 0000.0001) //                      =========
(PID.TID 0000.0001) // ======================================================
(PID.TID 0000.0001) // execution environment starting up...
(PID.TID 0000.0001) 
(PID.TID 0000.0001) // MITgcmUV version:  checkpoint59a
(PID.TID 0000.0001) // Build user:        jmc
(PID.TID 0000.0001) // Build host:        faulks
(PID.TID 0000.0001) // Build date:        Mon May 14 12:54:32 EDT 2007
(PID.TID 0000.0001) 
(PID.TID 0000.0001) // =======================================================
(PID.TID 0000.0001) // Execution Environment parameter file "eedata"
(PID.TID 0000.0001) // =======================================================
(PID.TID 0000.0001) ># Example "eedata" file
(PID.TID 0000.0001) ># Lines beginning "#" are comments
(PID.TID 0000.0001) ># nTx - No. threads per process in X
(PID.TID 0000.0001) ># nTy - No. threads per process in Y
(PID.TID 0000.0001) > &EEPARMS
(PID.TID 0000.0001) > nTx=1,
(PID.TID 0000.0001) > nTy=1,
(PID.TID 0000.0001) > &
(PID.TID 0000.0001) ># Note: Some systems use & as the
(PID.TID 0000.0001) ># namelist terminator. Other systems
(PID.TID 0000.0001) ># use a / character (as shown here).
(PID.TID 0000.0001) 
(PID.TID 0000.0001) // =======================================================
(PID.TID 0000.0001) // Computational Grid Specification ( see files "SIZE.h" )
(PID.TID 0000.0001) //                                  ( and "eedata"       )
(PID.TID 0000.0001) // =======================================================
(PID.TID 0000.0001)      nPx =    1 ; /* No. processes in X */
(PID.TID 0000.0001)      nPy =    1 ; /* No. processes in Y */
(PID.TID 0000.0001)      nSx =    2 ; /* No. tiles in X per process */
(PID.TID 0000.0001)      nSy =    1 ; /* No. tiles in Y per process */
(PID.TID 0000.0001)      sNx =   45 ; /* Tile size in X */
(PID.TID 0000.0001)      sNy =   40 ; /* Tile size in Y */
(PID.TID 0000.0001)      OLx =    2 ; /* Tile overlap distance in X */
(PID.TID 0000.0001)      OLy =    2 ; /* Tile overlap distance in Y */
(PID.TID 0000.0001)      nTx =    1 ; /* No. threads in X per process */
(PID.TID 0000.0001)      nTy =    1 ; /* No. threads in Y per process */
(PID.TID 0000.0001)       Nr =   15 ; /* No. levels in the vertical   */
(PID.TID 0000.0001)       nX =   90 ; /* Total domain size in X ( = nPx*nSx*sNx ) */
(PID.TID 0000.0001)       nY =   40 ; /* Total domain size in Y ( = nPy*nSy*sNy ) */
(PID.TID 0000.0001)   nTiles =    2 ; /* Total no. tiles per process ( = nSx*nSy ) */
(PID.TID 0000.0001)   nProcs =    1 ; /* Total no. processes ( = nPx*nPy ) */
(PID.TID 0000.0001) nThreads =    1 ; /* Total no. threads per process ( = nTx*nTy ) */
(PID.TID 0000.0001) usingMPI =    F ; /* Flag used to control whether MPI is in use */
(PID.TID 0000.0001)                   /*  note: To execute a program with MPI calls */
(PID.TID 0000.0001)                   /*  it must be launched appropriately e.g     */
(PID.TID 0000.0001)                   /*  "mpirun -np 64 ......"                    */
(PID.TID 0000.0001) useCoupler=   F ; /* Flag used to control communications with */
(PID.TID 0000.0001)                   /*  other model components, through a coupler */
(PID.TID 0000.0001) 
(PID.TID 0000.0001) // ======================================================
(PID.TID 0000.0001) // Mapping of tiles to threads
(PID.TID 0000.0001) // ======================================================
(PID.TID 0000.0001) // -o- Thread   1, tiles (   1:   2,   1:   1)
(PID.TID 0000.0001) 
(PID.TID 0000.0001) // ======================================================
(PID.TID 0000.0001) // Tile <-> Tile connectvity table
(PID.TID 0000.0001) // ======================================================
(PID.TID 0000.0001) // Tile number: 000001 (process no. = 000001)
(PID.TID 0000.0001) //        WEST: Tile = 000002, Process = 000001, Comm = put
(PID.TID 0000.0001) //                bi = 000002, bj = 000001
(PID.TID 0000.0001) //        EAST: Tile = 000002, Process = 000001, Comm = put
(PID.TID 0000.0001) //                bi = 000002, bj = 000001
(PID.TID 0000.0001) //       SOUTH: Tile = 000001, Process = 000001, Comm = put
(PID.TID 0000.0001) //                bi = 000001, bj = 000001
(PID.TID 0000.0001) //       NORTH: Tile = 000001, Process = 000001, Comm = put
(PID.TID 0000.0001) //                bi = 000001, bj = 000001
(PID.TID 0000.0001) // Tile number: 000002 (process no. = 000001)
(PID.TID 0000.0001) //        WEST: Tile = 000001, Process = 000001, Comm = put
(PID.TID 0000.0001) //                bi = 000001, bj = 000001
(PID.TID 0000.0001) //        EAST: Tile = 000001, Process = 000001, Comm = put
(PID.TID 0000.0001) //                bi = 000001, bj = 000001
(PID.TID 0000.0001) //       SOUTH: Tile = 000002, Process = 000001, Comm = put
(PID.TID 0000.0001) //                bi = 000002, bj = 000001
(PID.TID 0000.0001) //       NORTH: Tile = 000002, Process = 000001, Comm = put
(PID.TID 0000.0001) //                bi = 000002, bj = 000001
(PID.TID 0000.0001) 
(PID.TID 0000.0001) // =======================================================
(PID.TID 0000.0001) // Model parameter file "data"
(PID.TID 0000.0001) // =======================================================
(PID.TID 0000.0001) ># ====================
(PID.TID 0000.0001) ># | Model parameters |
(PID.TID 0000.0001) ># ====================
(PID.TID 0000.0001) >#
(PID.TID 0000.0001) ># Continuous equation parameters
(PID.TID 0000.0001) > &PARM01
(PID.TID 0000.0001) > tRef = 15*20.,
(PID.TID 0000.0001) > sRef = 15*35.,
(PID.TID 0000.0001) > viscAr=1.E-3,
(PID.TID 0000.0001) > viscAh=5.E5,
(PID.TID 0000.0001) > diffKhT=0.0,
(PID.TID 0000.0001) > diffKrT=3.E-5,
(PID.TID 0000.0001) > diffKhS=0.0,
(PID.TID 0000.0001) > diffKrS=3.E-5,
(PID.TID 0000.0001) > rhonil=1035.,
(PID.TID 0000.0001) > rotationPeriod=86400.,
(PID.TID 0000.0001) > gravity=9.81,
(PID.TID 0000.0001) > eosType = 'POLY3',
(PID.TID 0000.0001) > ivdc_kappa=100.,
(PID.TID 0000.0001) > implicitDiffusion=.TRUE.,
(PID.TID 0000.0001) > allowFreezing=.TRUE.,
(PID.TID 0000.0001) > useRealFreshWaterFlux=.TRUE.,
(PID.TID 0000.0001) > useCDscheme=.TRUE.,
(PID.TID 0000.0001) > useNHMTerms=.TRUE.,
(PID.TID 0000.0001) ># turn on looped cells
(PID.TID 0000.0001) > hFacMin=.05,
(PID.TID 0000.0001) > hFacMindr=50.,
(PID.TID 0000.0001) ># set precision of data files
(PID.TID 0000.0001) > readBinaryPrec=32,
(PID.TID 0000.0001) >#- not safe to use globalFiles in multi-processors runs
(PID.TID 0000.0001) >#globalfiles=.TRUE.
(PID.TID 0000.0001) > usesinglecpuio=.TRUE.
(PID.TID 0000.0001) > &
(PID.TID 0000.0001) >
(PID.TID 0000.0001) ># Elliptic solver parameters
(PID.TID 0000.0001) > &PARM02
(PID.TID 0000.0001) > cg2dMaxIters=500,
(PID.TID 0000.0001) > cg2dTargetResidual=1.E-13,
(PID.TID 0000.0001) > &
(PID.TID 0000.0001) >
(PID.TID 0000.0001) ># Time stepping parameters
(PID.TID 0000.0001) > &PARM03
(PID.TID 0000.0001) > nIter0 =      0,
(PID.TID 0000.0001) > nTimeSteps = 20,
(PID.TID 0000.0001) ># 100 years of integration will yield a reasonable flow field
(PID.TID 0000.0001) ># startTime  =          0.,
(PID.TID 0000.0001) ># endTime    = 3110400000.,
(PID.TID 0000.0001) > deltaTmom = 1200.0,
(PID.TID 0000.0001) > tauCD =     321428.,
(PID.TID 0000.0001) > deltaTtracer= 43200.0,
(PID.TID 0000.0001) > deltaTClock = 43200.0,
(PID.TID 0000.0001) ># if you are using a version later than checkpoint45d on the main branch
(PID.TID 0000.0001) ># you can uncomment the following line and increase the time step
(PID.TID 0000.0001) ># deltaTtracer and deltaTClock to 172800.0 as well to speed up the
(PID.TID 0000.0001) ># asynchronous time stepping
(PID.TID 0000.0001) ># deltaTfreesurf = 172800.0,
(PID.TID 0000.0001) > abEps = 0.1,
(PID.TID 0000.0001) > pChkptFreq= 311040000.,
(PID.TID 0000.0001) > dumpFreq=   311040000.,
(PID.TID 0000.0001) > dumpFreq=   864000.,
(PID.TID 0000.0001) > taveFreq=   311040000.,
(PID.TID 0000.0001) > taveFreq=   864000.,
(PID.TID 0000.0001) > monitorFreq=1.,
(PID.TID 0000.0001) ># 2 months restoring timescale for temperature
(PID.TID 0000.0001) > tauThetaClimRelax =  5184000.0,
(PID.TID 0000.0001) ># 6 months restoring timescale for salinity
(PID.TID 0000.0001) > tauSaltClimRelax = 15552000.0,
(PID.TID 0000.0001) > &
(PID.TID 0000.0001) >
(PID.TID 0000.0001) ># Gridding parameters
(PID.TID 0000.0001) > &PARM04
(PID.TID 0000.0001) > usingCartesianGrid=.FALSE.,
(PID.TID 0000.0001) > usingSphericalPolarGrid=.TRUE.,
(PID.TID 0000.0001) > delR= 50., 70., 100., 140., 190.,
(PID.TID 0000.0001) >       240., 290., 340., 390., 440.,
(PID.TID 0000.0001) >       490., 540., 590., 640., 690.,
(PID.TID 0000.0001) > phiMin=-80.,
(PID.TID 0000.0001) > dySpacing=4.,
(PID.TID 0000.0001) > dxSpacing=4.,
(PID.TID 0000.0001) > &
(PID.TID 0000.0001) >
(PID.TID 0000.0001) ># Input datasets
(PID.TID 0000.0001) > &PARM05
(PID.TID 0000.0001) > bathyFile=      'bathymetry.bin',
(PID.TID 0000.0001) > hydrogThetaFile='lev_t.bin',
(PID.TID 0000.0001) > hydrogSaltFile= 'lev_s.bin',
(PID.TID 0000.0001) > &
(PID.TID 0000.0001) 
(PID.TID 0000.0001) S/R INI_PARMS ; starts to read PARM01
(PID.TID 0000.0001) S/R INI_PARMS ; read PARM01 : OK
(PID.TID 0000.0001) S/R INI_PARMS: No request for barotropic solver
(PID.TID 0000.0001) S/R INI_PARMS: => Use implicitFreeSurface as default
(PID.TID 0000.0001) S/R INI_PARMS ; starts to read PARM02
(PID.TID 0000.0001) S/R INI_PARMS ; read PARM02 : OK
(PID.TID 0000.0001) S/R INI_PARMS ; starts to read PARM03
(PID.TID 0000.0001) S/R INI_PARMS ; read PARM03 : OK
(PID.TID 0000.0001) S/R INI_PARMS ; starts to read PARM04
(PID.TID 0000.0001) S/R INI_PARMS ; read PARM04 : OK
(PID.TID 0000.0001) S/R INI_PARMS ; starts to read PARM05
(PID.TID 0000.0001) S/R INI_PARMS ; read PARM05 : OK
(PID.TID 0000.0001)  PACKAGES_BOOT: opening data.pkg
(PID.TID 0000.0001)  OPEN_COPY_DATA_FILE: opening file data.pkg
(PID.TID 0000.0001) // =======================================================
(PID.TID 0000.0001) // Parameter file "data.pkg"
(PID.TID 0000.0001) // =======================================================
(PID.TID 0000.0001) ># Packages
(PID.TID 0000.0001) > &PACKAGES
(PID.TID 0000.0001) >  useEXF         = .TRUE.,
(PID.TID 0000.0001) >  useGMRedi      = .TRUE.,
(PID.TID 0000.0001) >  usediagnostics = .TRUE.,
(PID.TID 0000.0001) ># use genmake with  -enable=ptracers  before uncommenting this line.
(PID.TID 0000.0001) >#usePTRACERS=.TRUE.,
(PID.TID 0000.0001) > &
(PID.TID 0000.0001) >
(PID.TID 0000.0001) 
(PID.TID 0000.0001)  PACKAGES_BOOT: finished reading data.pkg
(PID.TID 0000.0001) CAL_READPARMS: opening data.cal
(PID.TID 0000.0001)  OPEN_COPY_DATA_FILE: opening file data.cal
(PID.TID 0000.0001) // =======================================================
(PID.TID 0000.0001) // Parameter file "data.cal"
(PID.TID 0000.0001) // =======================================================
(PID.TID 0000.0001) >#
(PID.TID 0000.0001) ># *******************
(PID.TID 0000.0001) ># Calendar Parameters
(PID.TID 0000.0001) ># *******************
(PID.TID 0000.0001) > &CAL_NML
(PID.TID 0000.0001) > TheCalendar='gregorian',
(PID.TID 0000.0001) ># TheCalendar='model',
(PID.TID 0000.0001) > startDate_1=19920101,
(PID.TID 0000.0001) > startDate_2=000000,
(PID.TID 0000.0001) > &
(PID.TID 0000.0001) 
(PID.TID 0000.0001) CAL_READPARMS: finished reading data.cal
(PID.TID 0000.0001) 
(PID.TID 0000.0001) // =======================================================
(PID.TID 0000.0001) // Calendar configuration >>> START <<<
(PID.TID 0000.0001) // =======================================================
(PID.TID 0000.0001) 
(PID.TID 0000.0001) Calendar version: 0.2.0
(PID.TID 0000.0001) 
(PID.TID 0000.0001) startTime =   /* Start time of the model integration [s] */
(PID.TID 0000.0001)                 0.000000000000000E+00
(PID.TID 0000.0001)     ;
(PID.TID 0000.0001) endTime =   /* End time of the model integration [s] */
(PID.TID 0000.0001)                 8.640000000000000E+05
(PID.TID 0000.0001)     ;
(PID.TID 0000.0001) deltatclock =   /* Time interval for a model forward step [s] */
(PID.TID 0000.0001)                 4.320000000000000E+04
(PID.TID 0000.0001)     ;
(PID.TID 0000.0001) usingGregorianCalendar =  /* Calendar Type: Gregorian Calendar */
(PID.TID 0000.0001)                   T
(PID.TID 0000.0001)     ;
(PID.TID 0000.0001) usingJulianCalendar =  /* Calendar Type: Julian Calendar */
(PID.TID 0000.0001)                   F
(PID.TID 0000.0001)     ;
(PID.TID 0000.0001) usingModelCalendar =  /* Calendar Type: Model Calendar */
(PID.TID 0000.0001)                   F
(PID.TID 0000.0001)     ;
(PID.TID 0000.0001) usingNoCalendar =  /* Calendar Type: No Calendar */
(PID.TID 0000.0001)                   F
(PID.TID 0000.0001)     ;
(PID.TID 0000.0001) modelstartdate (YYYYMMDD) =   /* Model start date YYYY-MM-DD  */
(PID.TID 0000.0001)                19920101
(PID.TID 0000.0001)     ;
(PID.TID 0000.0001) modelstartdate (HHMMSS) =   /* Model start date HH-MM-SS  */
(PID.TID 0000.0001)                       0
(PID.TID 0000.0001)     ;
(PID.TID 0000.0001) modelenddate (YYYYMMDD) =   /* Model end date YYYY-MM-DD  */
(PID.TID 0000.0001)                19920111
(PID.TID 0000.0001)     ;
(PID.TID 0000.0001) modelenddate (HHMMSS) =   /* Model end date HH-MM-SS  */
(PID.TID 0000.0001)                       0
(PID.TID 0000.0001)     ;
(PID.TID 0000.0001) intyears =   /* Number of calendar years affected by the integration  */
(PID.TID 0000.0001)                       1
(PID.TID 0000.0001)     ;
(PID.TID 0000.0001) intmonths =   /* Number of calendar months affected by the integration  */
(PID.TID 0000.0001)                       1
(PID.TID 0000.0001)     ;
(PID.TID 0000.0001) intdays =   /* Number of calendar days affected by the integration  */
(PID.TID 0000.0001)                      10
(PID.TID 0000.0001)     ;
(PID.TID 0000.0001) nIter0 =   /* Base timestep number  */
(PID.TID 0000.0001)                       0
(PID.TID 0000.0001)     ;
(PID.TID 0000.0001) nEndIter =   /* Final timestep number  */
(PID.TID 0000.0001)                      20
(PID.TID 0000.0001)     ;
(PID.TID 0000.0001) nTimeSteps =   /* Number of model timesteps  */
(PID.TID 0000.0001)                      20
(PID.TID 0000.0001)     ;
(PID.TID 0000.0001) 
(PID.TID 0000.0001) // =======================================================
(PID.TID 0000.0001) // Calendar configuration  >>> END <<<
(PID.TID 0000.0001) // =======================================================
(PID.TID 0000.0001) 
(PID.TID 0000.0001)  GM_READPARMS: opening data.gmredi
(PID.TID 0000.0001)  OPEN_COPY_DATA_FILE: opening file data.gmredi
(PID.TID 0000.0001) // =======================================================
(PID.TID 0000.0001) // Parameter file "data.gmredi"
(PID.TID 0000.0001) // =======================================================
(PID.TID 0000.0001) ># GM+Redi package parameters:
(PID.TID 0000.0001) >
(PID.TID 0000.0001) >#-from MOM :
(PID.TID 0000.0001) ># GM_background_K: 	G & Mc.W  diffusion coefficient
(PID.TID 0000.0001) ># GM_maxSlope    :	max slope of isopycnals
(PID.TID 0000.0001) ># GM_Scrit       :	transition for scaling diffusion coefficient
(PID.TID 0000.0001) ># GM_Sd          :	half width scaling for diffusion coefficient
(PID.TID 0000.0001) ># GM_taper_scheme:	slope clipping or one of the tapering schemes
(PID.TID 0000.0001) ># GM_Kmin_horiz  :	horizontal diffusion minimum value
(PID.TID 0000.0001) >
(PID.TID 0000.0001) >#-Option parameters (needs to "define" options in GMREDI_OPTIONS.h")
(PID.TID 0000.0001) ># GM_isopycK     :	isopycnal diffusion coefficient (default=GM_background_K)
(PID.TID 0000.0001) ># GM_AdvForm     :	turn on GM Advective form       (default=Skew flux form)
(PID.TID 0000.0001) >
(PID.TID 0000.0001) > &GM_PARM01
(PID.TID 0000.0001) >  GM_background_K    = 1.e+3,
(PID.TID 0000.0001) >  GM_taper_scheme    = 'gkw91',
(PID.TID 0000.0001) >  GM_maxSlope        = 1.e-2,
(PID.TID 0000.0001) >  GM_Kmin_horiz      = 50.,
(PID.TID 0000.0001) >  GM_Scrit           = 4.e-3,
(PID.TID 0000.0001) >  GM_Sd              = 1.e-3,
(PID.TID 0000.0001) ># GM_Visbeck_alpha   = 0.,
(PID.TID 0000.0001) ># GM_Visbeck_length  = 2.e+5,
(PID.TID 0000.0001) ># GM_Visbeck_depth   = 1.e+3,
(PID.TID 0000.0001) ># GM_Visbeck_maxval_K= 2.5e+3,
(PID.TID 0000.0001) > &
(PID.TID 0000.0001) >
(PID.TID 0000.0001) >
(PID.TID 0000.0001) 
(PID.TID 0000.0001)  GM_READPARMS: finished reading data.gmredi
(PID.TID 0000.0001) EXF_READPARMS: opening data.exf
(PID.TID 0000.0001)  OPEN_COPY_DATA_FILE: opening file data.exf
(PID.TID 0000.0001) // =======================================================
(PID.TID 0000.0001) // Parameter file "data.exf"
(PID.TID 0000.0001) // =======================================================
(PID.TID 0000.0001) >#
(PID.TID 0000.0001) ># *********************
(PID.TID 0000.0001) ># External Forcing Data
(PID.TID 0000.0001) ># *********************
(PID.TID 0000.0001) > &EXF_NML_01
(PID.TID 0000.0001) > exf_iprec         = 32,
(PID.TID 0000.0001) > exf_yftype        = 'RL',
(PID.TID 0000.0001) > &
(PID.TID 0000.0001) >
(PID.TID 0000.0001) ># *********************
(PID.TID 0000.0001) > &EXF_NML_02
(PID.TID 0000.0001) > hfluxstartdate1=19920101,
(PID.TID 0000.0001) > hfluxstartdate2=000000,
(PID.TID 0000.0001) > hfluxperiod=2592000.0,
(PID.TID 0000.0001) >#
(PID.TID 0000.0001) > sfluxstartdate1=19920101,
(PID.TID 0000.0001) > sfluxstartdate2=000000,
(PID.TID 0000.0001) > sfluxperiod=2592000.0,
(PID.TID 0000.0001) >#
(PID.TID 0000.0001) > ustressstartdate1=19920101,
(PID.TID 0000.0001) > ustressstartdate2=000000,
(PID.TID 0000.0001) > ustressperiod=2592000.0,
(PID.TID 0000.0001) >#
(PID.TID 0000.0001) > vstressstartdate1=19920101,
(PID.TID 0000.0001) > vstressstartdate2=000000,
(PID.TID 0000.0001) > vstressperiod=2592000.0,
(PID.TID 0000.0001) >#
(PID.TID 0000.0001) > climsststartdate1  = 19920101,
(PID.TID 0000.0001) > climsststartdate2  = 000000,
(PID.TID 0000.0001) > climsstperiod      = 2592000.0,
(PID.TID 0000.0001) >#
(PID.TID 0000.0001) > climsssstartdate1  = 19920101,
(PID.TID 0000.0001) > climsssstartdate2  = 000000,
(PID.TID 0000.0001) > climsssperiod      = 2592000.0,
(PID.TID 0000.0001) >#
(PID.TID 0000.0001) > hfluxfile    = 'ncep_qnet.bin',
(PID.TID 0000.0001) ># sfluxfile    = 'ncep_emp.bin',
(PID.TID 0000.0001) > ustressfile  = 'trenberth_taux.bin',
(PID.TID 0000.0001) > vstressfile  = 'trenberth_tauy.bin',
(PID.TID 0000.0001) > climsstfile  = 'lev_sst.bin',
(PID.TID 0000.0001) > climsssfile  = 'lev_sss.bin',
(PID.TID 0000.0001) >#
(PID.TID 0000.0001) > &
(PID.TID 0000.0001) >
(PID.TID 0000.0001) ># *********************
(PID.TID 0000.0001) > &EXF_NML_03
(PID.TID 0000.0001) > &
(PID.TID 0000.0001) >
(PID.TID 0000.0001) ># *********************
(PID.TID 0000.0001) > &EXF_NML_04
(PID.TID 0000.0001) > hflux_lon0    = 2
(PID.TID 0000.0001) > hflux_lon_inc = 4
(PID.TID 0000.0001) > hflux_lat0    = -78
(PID.TID 0000.0001) > hflux_lat_inc = 39*4
(PID.TID 0000.0001) > hflux_nlon    = 90
(PID.TID 0000.0001) > hflux_nlat    = 40
(PID.TID 0000.0001) >#
(PID.TID 0000.0001) > sflux_lon0    = 2
(PID.TID 0000.0001) > sflux_lon_inc = 4
(PID.TID 0000.0001) > sflux_lat0    = -78
(PID.TID 0000.0001) > sflux_lat_inc = 39*4
(PID.TID 0000.0001) > sflux_nlon    = 90
(PID.TID 0000.0001) > sflux_nlat    = 40
(PID.TID 0000.0001) >#
(PID.TID 0000.0001) > ustress_lon0    = 0
(PID.TID 0000.0001) > ustress_lon_inc = 4
(PID.TID 0000.0001) > ustress_lat0    = -78
(PID.TID 0000.0001) > ustress_lat_inc = 39*4
(PID.TID 0000.0001) > ustress_nlon    = 90
(PID.TID 0000.0001) > ustress_nlat    = 40
(PID.TID 0000.0001) >#
(PID.TID 0000.0001) > vstress_lon0    = 2
(PID.TID 0000.0001) > vstress_lon_inc = 4
(PID.TID 0000.0001) > vstress_lat0    = -80
(PID.TID 0000.0001) > vstress_lat_inc = 39*4
(PID.TID 0000.0001) > vstress_nlon    = 90
(PID.TID 0000.0001) > vstress_nlat    = 40
(PID.TID 0000.0001) >#
(PID.TID 0000.0001) > climsst_lon0    = 2
(PID.TID 0000.0001) > climsst_lon_inc = 4
(PID.TID 0000.0001) > climsst_lat0    = -78
(PID.TID 0000.0001) > climsst_lat_inc = 39*4
(PID.TID 0000.0001) > climsst_nlon    = 90
(PID.TID 0000.0001) > climsst_nlat    = 40
(PID.TID 0000.0001) >#
(PID.TID 0000.0001) > climsss_lon0    = 2
(PID.TID 0000.0001) > climsss_lon_inc = 4
(PID.TID 0000.0001) > climsss_lat0    = -78
(PID.TID 0000.0001) > climsss_lat_inc = 39*4
(PID.TID 0000.0001) > climsss_nlon    = 90
(PID.TID 0000.0001) > climsss_nlat    = 40
(PID.TID 0000.0001) >#
(PID.TID 0000.0001) > &
(PID.TID 0000.0001) 
(PID.TID 0000.0001) EXF_READPARMS: reading EXF_NML_01
(PID.TID 0000.0001) EXF_READPARMS: reading EXF_NML_02
(PID.TID 0000.0001) EXF_READPARMS: reading EXF_NML_03
(PID.TID 0000.0001) EXF_READPARMS: reading EXF_NML_04
(PID.TID 0000.0001) EXF_READPARMS: finished reading data.exf
(PID.TID 0000.0001) PROFILES_READPARMS: opening data.profiles
(PID.TID 0000.0001)  OPEN_COPY_DATA_FILE: opening file data.profiles
(PID.TID 0000.0001) // =======================================================
(PID.TID 0000.0001) // Parameter file "data.profiles"
(PID.TID 0000.0001) // =======================================================
(PID.TID 0000.0001) > &PROFILES_NML
(PID.TID 0000.0001) > profilesfiles(1)= 'prof_exemple',
(PID.TID 0000.0001) > &
(PID.TID 0000.0001) 
(PID.TID 0000.0001) PROFILES_READPARMS: finished reading data.profiles
(PID.TID 0000.0001)  DIAGNOSTICS_READPARMS: opening data.diagnostics
(PID.TID 0000.0001)  OPEN_COPY_DATA_FILE: opening file data.diagnostics
(PID.TID 0000.0001) // =======================================================
(PID.TID 0000.0001) // Parameter file "data.diagnostics"
(PID.TID 0000.0001) // =======================================================
(PID.TID 0000.0001) ># Diagnostic Package Choices
(PID.TID 0000.0001) >#-----------------
(PID.TID 0000.0001) ># for each output-stream:
(PID.TID 0000.0001) >#  filename(n) : prefix of the output file name (only 8.c long) for outp.stream n
(PID.TID 0000.0001) >#  frequency(n):< 0 : write snap-shot output every |frequency| seconds
(PID.TID 0000.0001) >#               > 0 : write time-average output every frequency seconds
(PID.TID 0000.0001) >#  timePhase(n)     : write at time = timePhase + multiple of |frequency|
(PID.TID 0000.0001) >#  levels(:,n) : list of levels to write to file (Notes: declared as REAL)
(PID.TID 0000.0001) >#                 when this entry is missing, select all common levels of this list
(PID.TID 0000.0001) >#  fields(:,n) : list of diagnostics fields (8.c) (see "available_diagnostics" file
(PID.TID 0000.0001) >#                 for the list of all available diag. in this particular config)
(PID.TID 0000.0001) >#-----------------
(PID.TID 0000.0001) ># This example dumps all KPP diagnostics as
(PID.TID 0000.0001) ># a snapshot after ten time steps
(PID.TID 0000.0001) > &diagnostics_list
(PID.TID 0000.0001) >  frequency(1) = -864000.,
(PID.TID 0000.0001) >   fields(1,1) = 'EXFtaux ',
(PID.TID 0000.0001) >   filename(1) = 'EXFtaux ',
(PID.TID 0000.0001) >#
(PID.TID 0000.0001) >  frequency(2) = -864000.,
(PID.TID 0000.0001) >   fields(1,2) = 'EXFtauy ',
(PID.TID 0000.0001) >   filename(2) = 'EXFtauy ',
(PID.TID 0000.0001) >#
(PID.TID 0000.0001) >  frequency(3) = -864000.,
(PID.TID 0000.0001) >   fields(1,3) = 'EXFqnet ',
(PID.TID 0000.0001) >   filename(3) = 'EXFqnet ',
(PID.TID 0000.0001) >  frequency(4) = -864000.,
(PID.TID 0000.0001) >   fields(1,4) = 'EXFempmr',
(PID.TID 0000.0001) >   filename(4) = 'EXFempmr',
(PID.TID 0000.0001) >#
(PID.TID 0000.0001) >  frequency(5) = -864000.,
(PID.TID 0000.0001) >   filename(5) = 'SSS',
(PID.TID 0000.0001) >   fields(1,5) = 'SALT    ',
(PID.TID 0000.0001) >   levels(1,5) = 1.,
(PID.TID 0000.0001) >  frequency(6) = -864000.,
(PID.TID 0000.0001) >   filename(6) = 'SST',
(PID.TID 0000.0001) >   fields(1,6) = 'THETA   ',
(PID.TID 0000.0001) >   levels(1,6) = 1.,
(PID.TID 0000.0001) >  frequency(7) = -864000.,
(PID.TID 0000.0001) >   filename(7) = 'UVEL_k2',
(PID.TID 0000.0001) >   fields(1,7) = 'UVEL    ',
(PID.TID 0000.0001) >   levels(1,7) = 2.,
(PID.TID 0000.0001) >  frequency(8) = -864000.,
(PID.TID 0000.0001) >   filename(8) = 'VVEL_k2',
(PID.TID 0000.0001) >   fields(1,8) = 'VVEL    ',
(PID.TID 0000.0001) >   levels(1,8) = 2.,
(PID.TID 0000.0001) > &
(PID.TID 0000.0001) >
(PID.TID 0000.0001) ># Parameter for Diagnostics of per level statistics:
(PID.TID 0000.0001) >#-----------------
(PID.TID 0000.0001) ># for each output-stream:
(PID.TID 0000.0001) >#  stat_fname(n) : prefix of the output file name (only 8.c long) for outp.stream n
(PID.TID 0000.0001) >#  stat_freq(n):< 0 : write snap-shot output every |stat_freq| seconds
(PID.TID 0000.0001) >#               > 0 : write time-average output every stat_freq seconds
(PID.TID 0000.0001) >#  stat_phase(n)    : write at time = stat_phase + multiple of |stat_freq|
(PID.TID 0000.0001) >#  stat_region(:,n) : list of "regions" (default: 1 region only=global)
(PID.TID 0000.0001) >#  stat_fields(:,n) : list of diagnostics fields (8.c) (see "available_diagnostics.log"
(PID.TID 0000.0001) >#                 file for the list of all available diag. in this particular config)
(PID.TID 0000.0001) >#-----------------
(PID.TID 0000.0001) > &DIAG_STATIS_PARMS
(PID.TID 0000.0001) >#- an example just to check the agreement with MONITOR output:
(PID.TID 0000.0001) >#stat_fields(1,1)= 'ETAN    ','UVEL    ','VVEL    ','WVEL    ', 'THETA   ',
(PID.TID 0000.0001) >#   stat_fname(1)= 'dynStDiag',
(PID.TID 0000.0001) >#    stat_freq(1)= -864000.,
(PID.TID 0000.0001) >#   stat_phase(1)= 0.,
(PID.TID 0000.0001) > &
(PID.TID 0000.0001) >
(PID.TID 0000.0001) 
(PID.TID 0000.0001) S/R DIAGNOSTICS_READPARMS, read namelist "diagnostics_list": start
(PID.TID 0000.0001) S/R DIAGNOSTICS_READPARMS, read namelist "diagnostics_list": OK
(PID.TID 0000.0001) S/R DIAGNOSTICS_READPARMS, read namelist "DIAG_STATIS_PARMS": start
(PID.TID 0000.0001) S/R DIAGNOSTICS_READPARMS, read namelist "DIAG_STATIS_PARMS": OK
(PID.TID 0000.0001) -----------------------------------------------------
(PID.TID 0000.0001)  DIAGNOSTICS_READPARMS: active diagnostics summary:
(PID.TID 0000.0001) -----------------------------------------------------
(PID.TID 0000.0001) Creating Output Stream: EXFtaux
(PID.TID 0000.0001) Output Frequency:   -864000.000000 ; Phase:     432000.000000
(PID.TID 0000.0001)  Averaging Freq.:         0.000000 , Phase:          0.000000 , Cycle:  1
(PID.TID 0000.0001)  Levels:    will be set later
(PID.TID 0000.0001) Fields:    EXFtaux
(PID.TID 0000.0001) Creating Output Stream: EXFtauy
(PID.TID 0000.0001) Output Frequency:   -864000.000000 ; Phase:     432000.000000
(PID.TID 0000.0001)  Averaging Freq.:         0.000000 , Phase:          0.000000 , Cycle:  1
(PID.TID 0000.0001)  Levels:    will be set later
(PID.TID 0000.0001) Fields:    EXFtauy
(PID.TID 0000.0001) Creating Output Stream: EXFqnet
(PID.TID 0000.0001) Output Frequency:   -864000.000000 ; Phase:     432000.000000
(PID.TID 0000.0001)  Averaging Freq.:         0.000000 , Phase:          0.000000 , Cycle:  1
(PID.TID 0000.0001)  Levels:    will be set later
(PID.TID 0000.0001) Fields:    EXFqnet
(PID.TID 0000.0001) Creating Output Stream: EXFempmr
(PID.TID 0000.0001) Output Frequency:   -864000.000000 ; Phase:     432000.000000
(PID.TID 0000.0001)  Averaging Freq.:         0.000000 , Phase:          0.000000 , Cycle:  1
(PID.TID 0000.0001)  Levels:    will be set later
(PID.TID 0000.0001) Fields:    EXFempmr
(PID.TID 0000.0001) Creating Output Stream: SSS
(PID.TID 0000.0001) Output Frequency:   -864000.000000 ; Phase:     432000.000000
(PID.TID 0000.0001)  Averaging Freq.:         0.000000 , Phase:          0.000000 , Cycle:  1
(PID.TID 0000.0001)  Levels:       1.
(PID.TID 0000.0001) Fields:    SALT
(PID.TID 0000.0001) Creating Output Stream: SST
(PID.TID 0000.0001) Output Frequency:   -864000.000000 ; Phase:     432000.000000
(PID.TID 0000.0001)  Averaging Freq.:         0.000000 , Phase:          0.000000 , Cycle:  1
(PID.TID 0000.0001)  Levels:       1.
(PID.TID 0000.0001) Fields:    THETA
(PID.TID 0000.0001) Creating Output Stream: UVEL_k2
(PID.TID 0000.0001) Output Frequency:   -864000.000000 ; Phase:     432000.000000
(PID.TID 0000.0001)  Averaging Freq.:         0.000000 , Phase:          0.000000 , Cycle:  1
(PID.TID 0000.0001)  Levels:       2.
(PID.TID 0000.0001) Fields:    UVEL
(PID.TID 0000.0001) Creating Output Stream: VVEL_k2
(PID.TID 0000.0001) Output Frequency:   -864000.000000 ; Phase:     432000.000000
(PID.TID 0000.0001)  Averaging Freq.:         0.000000 , Phase:          0.000000 , Cycle:  1
(PID.TID 0000.0001)  Levels:       2.
(PID.TID 0000.0001) Fields:    VVEL
(PID.TID 0000.0001) -----------------------------------------------------
(PID.TID 0000.0001)  DIAGNOSTICS_READPARMS: statistics diags. summary:
(PID.TID 0000.0001) -----------------------------------------------------
(PID.TID 0000.0001) 
(PID.TID 0000.0001) SET_PARMS: done
(PID.TID 0000.0001) Enter INI_VERTICAL_GRID: setInterFDr=    T ; setCenterDr=    F
(PID.TID 0000.0001) %MON XC_max                       =   3.5800000000000E+02
(PID.TID 0000.0001) %MON XC_min                       =   2.0000000000000E+00
(PID.TID 0000.0001) %MON XC_mean                      =   1.8000000000000E+02
(PID.TID 0000.0001) %MON XC_sd                        =   1.0391663325314E+02
(PID.TID 0000.0001) %MON XG_max                       =   3.5600000000000E+02
(PID.TID 0000.0001) %MON XG_min                       =   4.0000000000000E+00
(PID.TID 0000.0001) %MON XG_mean                      =   1.8000000000000E+02
(PID.TID 0000.0001) %MON XG_sd                        =   1.0276186062932E+02
(PID.TID 0000.0001) %MON DXC_max                      =   4.4443898815675E+05
(PID.TID 0000.0001) %MON DXC_min                      =   9.2460385861875E+04
(PID.TID 0000.0001) %MON DXC_mean                     =   3.1372497618153E+05
(PID.TID 0000.0001) %MON DXC_sd                       =   1.1216447457560E+05
(PID.TID 0000.0001) %MON DXF_max                      =   4.4443898815675E+05
(PID.TID 0000.0001) %MON DXF_min                      =   9.2460385861875E+04
(PID.TID 0000.0001) %MON DXF_mean                     =   3.1372497618153E+05
(PID.TID 0000.0001) %MON DXF_sd                       =   1.1216447457560E+05
(PID.TID 0000.0001) %MON DXG_max                      =   4.4470989340816E+05
(PID.TID 0000.0001) %MON DXG_min                      =   7.7223062580781E+04
(PID.TID 0000.0001) %MON DXG_mean                     =   3.1353386340261E+05
(PID.TID 0000.0001) %MON DXG_sd                       =   1.1256651772502E+05
(PID.TID 0000.0001) %MON DXV_max                      =   4.4470989340816E+05
(PID.TID 0000.0001) %MON DXV_min                      =   7.7223062580781E+04
(PID.TID 0000.0001) %MON DXV_mean                     =   3.1353386340261E+05
(PID.TID 0000.0001) %MON DXV_sd                       =   1.1256651772502E+05
(PID.TID 0000.0001) %MON YC_max                       =   7.8000000000000E+01
(PID.TID 0000.0001) %MON YC_min                       =  -7.8000000000000E+01
(PID.TID 0000.0001) %MON YC_mean                      =   0.0000000000000E+00
(PID.TID 0000.0001) %MON YC_sd                        =   4.6173585522461E+01
(PID.TID 0000.0001) %MON YG_max                       =   7.6000000000000E+01
(PID.TID 0000.0001) %MON YG_min                       =  -8.0000000000000E+01
(PID.TID 0000.0001) %MON YG_mean                      =  -2.0512820512821E+00
(PID.TID 0000.0001) %MON YG_sd                        =   4.6760682979564E+01
(PID.TID 0000.0001) %MON DYC_max                      =   4.4470989340816E+05
(PID.TID 0000.0001) %MON DYC_min                      =   4.4470989340816E+05
(PID.TID 0000.0001) %MON DYC_mean                     =   4.4470989340817E+05
(PID.TID 0000.0001) %MON DYC_sd                       =   1.4668330550194E-08
(PID.TID 0000.0001) %MON DYF_max                      =   4.4470989340816E+05
(PID.TID 0000.0001) %MON DYF_min                      =   4.4470989340816E+05
(PID.TID 0000.0001) %MON DYF_mean                     =   4.4470989340817E+05
(PID.TID 0000.0001) %MON DYF_sd                       =   1.4668330550194E-08
(PID.TID 0000.0001) %MON DYG_max                      =   4.4470989340816E+05
(PID.TID 0000.0001) %MON DYG_min                      =   4.4470989340816E+05
(PID.TID 0000.0001) %MON DYG_mean                     =   4.4470989340817E+05
(PID.TID 0000.0001) %MON DYG_sd                       =   1.4668330550194E-08
(PID.TID 0000.0001) %MON DYU_max                      =   4.4470989340816E+05
(PID.TID 0000.0001) %MON DYU_min                      =   4.4470989340816E+05
(PID.TID 0000.0001) %MON DYU_mean                     =   4.4470989340817E+05
(PID.TID 0000.0001) %MON DYU_sd                       =   1.4668330550194E-08
(PID.TID 0000.0001) %MON RA_max                       =   1.9760627980089E+11
(PID.TID 0000.0001) %MON RA_min                       =   4.1109698667290E+10
(PID.TID 0000.0001) %MON RA_mean                      =   1.3948826965196E+11
(PID.TID 0000.0001) %MON RA_sd                        =   4.9870522472902E+10
(PID.TID 0000.0001) %MON RAW_max                      =   1.9760627980089E+11
(PID.TID 0000.0001) %MON RAW_min                      =   4.1109698667290E+10
(PID.TID 0000.0001) %MON RAW_mean                     =   1.3948826965196E+11
(PID.TID 0000.0001) %MON RAW_sd                       =   4.9870522472902E+10
(PID.TID 0000.0001) %MON RAS_max                      =   1.9772672958215E+11
(PID.TID 0000.0001) %MON RAS_min                      =   3.4334886267983E+10
(PID.TID 0000.0001) %MON RAS_mean                     =   1.3940329716694E+11
(PID.TID 0000.0001) %MON RAS_sd                       =   5.0049278732353E+10
(PID.TID 0000.0001) %MON RAZ_max                      =   1.9772672958215E+11
(PID.TID 0000.0001) %MON RAZ_min                      =   3.4334886267983E+10
(PID.TID 0000.0001) %MON RAZ_mean                     =   1.3940329716694E+11
(PID.TID 0000.0001) %MON RAZ_sd                       =   5.0049278732353E+10
(PID.TID 0000.0001) %MON AngleCS_max                  =   1.0000000000000E+00
(PID.TID 0000.0001) %MON AngleCS_min                  =   1.0000000000000E+00
(PID.TID 0000.0001) %MON AngleCS_mean                 =   1.0000000000000E+00
(PID.TID 0000.0001) %MON AngleCS_sd                   =   0.0000000000000E+00
(PID.TID 0000.0001) %MON AngleSN_max                  =   0.0000000000000E+00
(PID.TID 0000.0001) %MON AngleSN_min                  =   0.0000000000000E+00
(PID.TID 0000.0001) %MON AngleSN_mean                 =   0.0000000000000E+00
(PID.TID 0000.0001) %MON AngleSN_sd                   =   0.0000000000000E+00
(PID.TID 0000.0001)  MDS_READ_FIELD: opening global file: bathymetry.bin
(PID.TID 0000.0001) // =======================================================
(PID.TID 0000.0001) // Field Model R_low (ini_masks_etc) at iteration          1
(PID.TID 0000.0001) // CMIN =         -5.200000000000000E+03
(PID.TID 0000.0001) // CMAX =         -1.200000000000000E+02
(PID.TID 0000.0001) // CINT =          1.881481481481482E+02
(PID.TID 0000.0001) // SYMBOLS (CMIN->CMAX): -abcdefghijklmnopqrstuvwxyz+
(PID.TID 0000.0001) //                  0.0: .
(PID.TID 0000.0001) // RANGE I (Lo:Hi:Step):(  -1:  92:   1)
(PID.TID 0000.0001) // RANGE J (Lo:Hi:Step):(  42:  -1:  -1)
(PID.TID 0000.0001) // RANGE K (Lo:Hi:Step):(   1:   1:   1)
(PID.TID 0000.0001) // =======================================================
(PID.TID 0000.0001) K =   1
(PID.TID 0000.0001) //                I=8       I=18      I=28      I=38      I=44      I=54      I=64      I=74      I=84
(PID.TID 0000.0001) // |--J--|101234567|901234567|901234567|901234567|901234567|567890123|567890123|567890123|567890123|56789012
(PID.TID 0000.0001) //     42 ............................................zyxxmyxxmgfeeefefgimnpwwwy..+zyy.....yyyyoiiihhz+.....
(PID.TID 0000.0001) //     41 ..................................................................................................
(PID.TID 0000.0001) //     40 qlloqz+.++++zzz++++++......................................................................+++qllo
(PID.TID 0000.0001) //     39 slloorzzzzzzzzz+...++.........................................................yxxz........+zvusllo
(PID.TID 0000.0001) //     38 mqpporzzzzzz+++...............................................................zxxy+......zyyvsmqpp
(PID.TID 0000.0001) //     37 mmmuz......................................................................++...zy+...yttyy.+smmmu
(PID.TID 0000.0001) //     36 utt+.........................................mm++mm++....................+++++++znmm.yoowssvuyutt+
(PID.TID 0000.0001) //     35 ++++.................................+zzz..rrmmkkmmkk+...+gghn...........+++....+nmiijlsoopuww++++
(PID.TID 0000.0001) //     34 .....................................+vvy.ggqyxv+yxv+y.ccdffhim..................+nihhikkihhm+....
(PID.TID 0000.0001) //     33 +.....................................uuz---h----------aaabdefin+.................zqvddflifffw+...
(PID.TID 0000.0001) //     32 +.....................................+t----h-------------acdfgnn................+++gdffkofffm+...
(PID.TID 0000.0001) //     31 ......................................-----ad------------abddegil..............qbaafccdhqqgddm....
(PID.TID 0000.0001) //     30 .....................................f----b--b---b------------abd............zfbb--fbcdosjfddi....
(PID.TID 0000.0001) //     29 ...................................tu----e---fjg-fjg----------abdf...........eaac--abfmijaadgi....
(PID.TID 0000.0001) //     28 .................................+xfl-----------------------bdedefi.........qbaa---aemfbbaaejz....
(PID.TID 0000.0001) //     27 ................xx..............+wfgfpf--------ea--eallc---bbbccefgi...+++x.qb-----akfa---ah......
(PID.TID 0000.0001) //     26 ................xnn...........+vd---dna------a--aa--aicfna---aabdfghku.++xssuy-----bgca---ci......
(PID.TID 0000.0001) //     25 ................iiik...oo+...+ivd---doaa-bc--ilglilglf--aa---aabcghhkll...ssum+xaaacjbaabdjk......
(PID.TID 0000.0001) //     24 ..............xnheeft.kkk+...uii.aagdm----aa---------a-------bbbcdefjljjju.zummwwbbchba--abi......
(PID.TID 0000.0001) //     23 ..............xgheefp.iikw...uuw..fihi----fed---------eaaa--bbbbcdfflkjiiiq....zykccefa--abd......
(PID.TID 0000.0001) //     22 uss...........bbelffslffkk...zz.wqkeeqoheccdfa---a-----egabaabcdddegghliiiqq......xeeehheehccquss.
(PID.TID 0000.0001) //     21 bbeir........nbbcdjhqdddiiz.....wqfeelgghmedea---a-----bibbcddddddefghklnqoo........ieeflhgcccbbei
(PID.TID 0000.0001) //     20 bbder.......ldcccdgkccccidd......z.vkkktqqhegg---g----aaacddddddddefghkiiijl.........nhfa--gfcbbde
(PID.TID 0000.0001) //     19 cdaaf.......kddosggpaaaibbccx...+z+.....r+nlec---c---agaaabcddccddefikfgffff...........d---cjhcdaa
(PID.TID 0000.0001) //     18 d---d.......kglggvliaaaibbcaaeaiv++...qqzolhecccfcccfdgkaabcdfccdeeikgfgffdd+..........d---djhd---
(PID.TID 0000.0001) //     17 c---c.......l.feewlfaaaoaa----aiv.....qqnllslmlofmlofcdbaacceffffhhligfigeddj.........hd---ckhc---
(PID.TID 0000.0001) //     16 ba--c......tn.ddgnlfdaaqa-----lv.......vnllvllnwvlnwv--accivomfffhilhgfffeddjf........re--aeigba--
(PID.TID 0000.0001) //     15 b--dpz....+ll.ccdfhmdddlc----av.........otsxoomv-omv---abccddfihgijkhgfffeejfff......+fd---ckfb--d
(PID.TID 0000.0001) //     14 c--mcl....weeqbaafilkfend--eagy.........hhstofft-fft----aacdheefijkmjhhjijiffff.....zlfdaaadlfc--m
(PID.TID 0000.0001) //     13 cclbbg....nccobaaiddgkffqrqeaal.........eeutqfft-fft------aaceeffhijlkjhhigfffq....+jgfodccflhcclb
(PID.TID 0000.0001) //     12 hgaaacw+iiicclemhdddfliigfdcaabfaaaz....ccsurqpc-qpc--------abcifffikiiihhggff.....kbbbdfffglhhgaa
(PID.TID 0000.0001) //     11 gcaaacbbifccennhbbdefnihgfdccaaaa----..dcccnt.nca.ncab-------aabcdfilhggjiggff....l---abcefjlkgcaa
(PID.TID 0000.0001) //     10 fcaaccbdaacfrllfbbdegkmmljhfdddba----d.dcccfx.nyr.nyrebaba----abcdgilhfeegijgi..+w--aa-abcfilkfcaa
(PID.TID 0000.0001) //      9 ffcdcccaaaoqsolfdeehikihhlllgfedcccccdmdcccf.vyfavyfaaaaaaaa--abdehmjhfeeefglv.++w-----abcdfklffcd
(PID.TID 0000.0001) //      8 iffjklcaafddffeeccvznkfffhhhlkjifgjkkfeeddfsyvcaavcaaaaaaccdcccdfgjligedbbceg+.++xffn--cfddefliffj
(PID.TID 0000.0001) //      7 mqnnbbkkf--bmbaabbgtykfddeffeeddccdfhlffeelfbaaaaaaaaaacddeghgjgjlligeddaaabedfiiiiiisvkfkecchmqnn
(PID.TID 0000.0001) //      6 ca-------------aabcelttdddedddddccccdfkkiiffbaaaaaaaabcdgimmkmefecaaabbbaaabbdfiiiiispmmregifcca--
(PID.TID 0000.0001) //      5 -------a-------aaccehhhiddeddddddcccdfiikomodddefddefffmlmigedccaaaaaaaababbbdfiijsqgeccccbaa-----
(PID.TID 0000.0001) //      4 -ahebaabbbbbeihffgijiiiijpywnnpokkomkiiijmmmolkomlkommmgffeeedccaaaaaabbcccefhmz..yjgeccccbaa--ahe
(PID.TID 0000.0001) //      3 ffhhrpjiiwyy............................yxotmjjjjjjjjgfeeeeeeddeffffheddeghjkyy..yqjgeddccdbbgffhh
(PID.TID 0000.0001) //      2 ............................................zyxxmyxxmgfeeefefgimnpwwwy..+zyy.....yyyyoiiihhz+.....
(PID.TID 0000.0001) //      1 ..................................................................................................
(PID.TID 0000.0001) //      0 qlloqz+.++++zzz++++++......................................................................+++qllo
(PID.TID 0000.0001) //     -1 slloorzzzzzzzzz+...++.........................................................yxxz........+zvusllo
(PID.TID 0000.0001) // =======================================================
(PID.TID 0000.0001) // END OF FIELD                                          =
(PID.TID 0000.0001) // =======================================================
(PID.TID 0000.0001) 
(PID.TID 0000.0001) // =======================================================
(PID.TID 0000.0001) // Field Model Ro_surf (ini_masks_etc) at iteration          1
(PID.TID 0000.0001) // CMIN =          1.000000000000000E+32
(PID.TID 0000.0001) // CMAX =         -1.000000000000000E+32
(PID.TID 0000.0001) // CINT =          0.000000000000000E+00
(PID.TID 0000.0001) // SYMBOLS (CMIN->CMAX): -abcdefghijklmnopqrstuvwxyz+
(PID.TID 0000.0001) //                  0.0: .
(PID.TID 0000.0001) // RANGE I (Lo:Hi:Step):(  -1:  92:   1)
(PID.TID 0000.0001) // RANGE J (Lo:Hi:Step):(  42:  -1:  -1)
(PID.TID 0000.0001) // RANGE K (Lo:Hi:Step):(   1:   1:   1)
(PID.TID 0000.0001) // =======================================================
(PID.TID 0000.0001) // =======================================================
(PID.TID 0000.0001) // END OF FIELD                                          =
(PID.TID 0000.0001) // =======================================================
(PID.TID 0000.0001) 
(PID.TID 0000.0001) // =======================================================
(PID.TID 0000.0001) // Field hFacC at iteration          1
(PID.TID 0000.0001) // CMIN =          1.000000000000000E+00
(PID.TID 0000.0001) // CMAX =          1.000000000000000E+00
(PID.TID 0000.0001) // CINT =          0.000000000000000E+00
(PID.TID 0000.0001) // SYMBOLS (CMIN->CMAX): -abcdefghijklmnopqrstuvwxyz+
(PID.TID 0000.0001) //                  0.0: .
(PID.TID 0000.0001) // RANGE I (Lo:Hi:Step):(  -1:  92:   1)
(PID.TID 0000.0001) // RANGE J (Lo:Hi:Step):(  42:  -1:  -1)
(PID.TID 0000.0001) // RANGE K (Lo:Hi:Step):(   1:   1:   1)
(PID.TID 0000.0001) // =======================================================
(PID.TID 0000.0001) // =======================================================
(PID.TID 0000.0001) // END OF FIELD                                          =
(PID.TID 0000.0001) // =======================================================
(PID.TID 0000.0001) 
(PID.TID 0000.0001) // =======================================================
(PID.TID 0000.0001) // Field hFacW at iteration          1
(PID.TID 0000.0001) // CMIN =          1.000000000000000E+00
(PID.TID 0000.0001) // CMAX =          1.000000000000000E+00
(PID.TID 0000.0001) // CINT =          0.000000000000000E+00
(PID.TID 0000.0001) // SYMBOLS (CMIN->CMAX): -abcdefghijklmnopqrstuvwxyz+
(PID.TID 0000.0001) //                  0.0: .
(PID.TID 0000.0001) // RANGE I (Lo:Hi:Step):(  -1:  92:   1)
(PID.TID 0000.0001) // RANGE J (Lo:Hi:Step):(  42:  -1:  -1)
(PID.TID 0000.0001) // RANGE K (Lo:Hi:Step):(   1:   1:   1)
(PID.TID 0000.0001) // =======================================================
(PID.TID 0000.0001) // =======================================================
(PID.TID 0000.0001) // END OF FIELD                                          =
(PID.TID 0000.0001) // =======================================================
(PID.TID 0000.0001) 
(PID.TID 0000.0001) // =======================================================
(PID.TID 0000.0001) // Field hFacS at iteration          1
(PID.TID 0000.0001) // CMIN =          1.000000000000000E+00
(PID.TID 0000.0001) // CMAX =          1.000000000000000E+00
(PID.TID 0000.0001) // CINT =          0.000000000000000E+00
(PID.TID 0000.0001) // SYMBOLS (CMIN->CMAX): -abcdefghijklmnopqrstuvwxyz+
(PID.TID 0000.0001) //                  0.0: .
(PID.TID 0000.0001) // RANGE I (Lo:Hi:Step):(  -1:  92:   1)
(PID.TID 0000.0001) // RANGE J (Lo:Hi:Step):(  42:  -1:  -1)
(PID.TID 0000.0001) // RANGE K (Lo:Hi:Step):(   1:   1:   1)
(PID.TID 0000.0001) // =======================================================
(PID.TID 0000.0001) // =======================================================
(PID.TID 0000.0001) // END OF FIELD                                          =
(PID.TID 0000.0001) // =======================================================
(PID.TID 0000.0001) 
(PID.TID 0000.0001) 
(PID.TID 0000.0001) // ===================================
(PID.TID 0000.0001) // GAD parameters :
(PID.TID 0000.0001) // ===================================
(PID.TID 0000.0001) tempAdvScheme =   /* Temp. Horiz.Advection scheme selector */
(PID.TID 0000.0001)                       2
(PID.TID 0000.0001)     ;
(PID.TID 0000.0001) tempVertAdvScheme =   /* Temp. Vert. Advection scheme selector */
(PID.TID 0000.0001)                       2
(PID.TID 0000.0001)     ;
(PID.TID 0000.0001) tempMultiDimAdvec =   /* use Muti-Dim Advec method for Temp */
(PID.TID 0000.0001)                   F
(PID.TID 0000.0001)     ;
(PID.TID 0000.0001) tempSOM_Advection = /* use 2nd Order Moment Advection for Temp */
(PID.TID 0000.0001)                   F
(PID.TID 0000.0001)     ;
(PID.TID 0000.0001) AdamsBashforthGt = /* apply Adams-Bashforth extrapolation on Gt */
(PID.TID 0000.0001)                   T
(PID.TID 0000.0001)     ;
(PID.TID 0000.0001) AdamsBashforth_T = /* apply Adams-Bashforth extrapolation on Temp */
(PID.TID 0000.0001)                   F
(PID.TID 0000.0001)     ;
(PID.TID 0000.0001) saltAdvScheme =   /* Salt. Horiz.advection scheme selector */
(PID.TID 0000.0001)                       2
(PID.TID 0000.0001)     ;
(PID.TID 0000.0001) saltVertAdvScheme =   /* Salt. Vert. Advection scheme selector */
(PID.TID 0000.0001)                       2
(PID.TID 0000.0001)     ;
(PID.TID 0000.0001) saltMultiDimAdvec =   /* use Muti-Dim Advec method for Salt */
(PID.TID 0000.0001)                   F
(PID.TID 0000.0001)     ;
(PID.TID 0000.0001) saltSOM_Advection = /* use 2nd Order Moment Advection for Salt */
(PID.TID 0000.0001)                   F
(PID.TID 0000.0001)     ;
(PID.TID 0000.0001) AdamsBashforthGs = /* apply Adams-Bashforth extrapolation on Gs */
(PID.TID 0000.0001)                   T
(PID.TID 0000.0001)     ;
(PID.TID 0000.0001) AdamsBashforth_S = /* apply Adams-Bashforth extrapolation on Salt */
(PID.TID 0000.0001)                   F
(PID.TID 0000.0001)     ;
(PID.TID 0000.0001) // ===================================
(PID.TID 0000.0001) 
(PID.TID 0000.0001) // =======================================================
(PID.TID 0000.0001) // External forcing configuration >>> START <<<
(PID.TID 0000.0001) // =======================================================
(PID.TID 0000.0001) 
(PID.TID 0000.0001)  EXF general parameters:
(PID.TID 0000.0001) 
(PID.TID 0000.0001) exf_yftype =  /* ? */
(PID.TID 0000.0001)               'RL'
(PID.TID 0000.0001)     ;
(PID.TID 0000.0001) exf_iprec = /* exf file precision */
(PID.TID 0000.0001)                      32
(PID.TID 0000.0001)     ;
(PID.TID 0000.0001) useExfYearlyFields = /* add extension _YEAR to input file names */
(PID.TID 0000.0001)                   F
(PID.TID 0000.0001)     ;
(PID.TID 0000.0001) twoDigitYear = /* use 2-digit year extension */
(PID.TID 0000.0001)                   F
(PID.TID 0000.0001)     ;
(PID.TID 0000.0001) useExfCheckRange = /* check for fields range */
(PID.TID 0000.0001)                   T
(PID.TID 0000.0001)     ;
(PID.TID 0000.0001) exf_monFreq = /* EXF monitor frequency [ s ] */
(PID.TID 0000.0001)                 1.000000000000000E+00
(PID.TID 0000.0001)     ;
(PID.TID 0000.0001) repeatPeriod = /* period for cycling forcing dataset [ s ] */
(PID.TID 0000.0001)                 0.000000000000000E+00
(PID.TID 0000.0001)     ;
(PID.TID 0000.0001) climTempFreeze= /* Minimum climatological temperature [deg.C] */
(PID.TID 0000.0001)                -1.900000000000000E+00
(PID.TID 0000.0001)     ;
(PID.TID 0000.0001) windStressMax = /* Maximum absolute windstress [ Pa ] */
(PID.TID 0000.0001)                 2.000000000000000E+00
(PID.TID 0000.0001)     ;
(PID.TID 0000.0001) stressIsOnCgrid = /* set u,v_stress on Arakawa C-grid */
(PID.TID 0000.0001)                   F
(PID.TID 0000.0001)     ;
(PID.TID 0000.0001) cen2kel = /* conversion of deg. Centigrade to Kelvin [K] */
(PID.TID 0000.0001)                 2.731500000000000E+02
(PID.TID 0000.0001)     ;
(PID.TID 0000.0001) gravity_mks= /* gravitational acceleration [m/s^2] */
(PID.TID 0000.0001)                 9.810000000000000E+00
(PID.TID 0000.0001)     ;
(PID.TID 0000.0001) atmrho =  /* mean atmospheric density [kg/m^3] */
(PID.TID 0000.0001)                 1.200000000000000E+00
(PID.TID 0000.0001)     ;
(PID.TID 0000.0001) atmcp =  /* mean atmospheric specific heat [J/kg/K] */
(PID.TID 0000.0001)                 1.005000000000000E+03
(PID.TID 0000.0001)     ;
(PID.TID 0000.0001) flamb =  /* latent heat of evaporation [J/kg] */
(PID.TID 0000.0001)                 2.500000000000000E+06
(PID.TID 0000.0001)     ;
(PID.TID 0000.0001) flami =  /* latent heat of pure-ice melting [J/kg] */
(PID.TID 0000.0001)                 3.340000000000000E+05
(PID.TID 0000.0001)     ;
(PID.TID 0000.0001) cvapor_fac = /* const. for Saturation calculation [?] */
(PID.TID 0000.0001)                 6.403800000000000E+05
(PID.TID 0000.0001)     ;
(PID.TID 0000.0001) cvapor_exp = /* const. for Saturation calculation [?] */
(PID.TID 0000.0001)                 5.107400000000000E+03
(PID.TID 0000.0001)     ;
(PID.TID 0000.0001) cvapor_fac_ice= /* const. for Saturation calculation [?] */
(PID.TID 0000.0001)                 1.163780000000000E+07
(PID.TID 0000.0001)     ;
(PID.TID 0000.0001) cvapor_exp_ice= /* const. for Saturation calculation [?] */
(PID.TID 0000.0001)                 5.897800000000000E+03
(PID.TID 0000.0001)     ;
(PID.TID 0000.0001) humid_fac = /* humidity coef. in virtual temp. [(kg/kg)^-1] */
(PID.TID 0000.0001)                 6.060000000000000E-01
(PID.TID 0000.0001)     ;
(PID.TID 0000.0001) gamma_blk = /* adiabatic lapse rate [?] */
(PID.TID 0000.0001)                 1.000000000000000E-02
(PID.TID 0000.0001)     ;
(PID.TID 0000.0001) saltsat = /* reduction of Qsat over salty water [-] */
(PID.TID 0000.0001)                 9.800000000000000E-01
(PID.TID 0000.0001)     ;
(PID.TID 0000.0001) cDrag_1 = /* coef used in drag calculation [?] */
(PID.TID 0000.0001)                 2.700000000000000E-03
(PID.TID 0000.0001)     ;
(PID.TID 0000.0001) cDrag_2 = /* coef used in drag calculation [?] */
(PID.TID 0000.0001)                 1.420000000000000E-04
(PID.TID 0000.0001)     ;
(PID.TID 0000.0001) cDrag_3 = /* coef used in drag calculation [?] */
(PID.TID 0000.0001)                 7.640000000000000E-05
(PID.TID 0000.0001)     ;
(PID.TID 0000.0001) cStanton_1 = /* coef used in Stanton number calculation [?] */
(PID.TID 0000.0001)                 3.270000000000000E-02
(PID.TID 0000.0001)     ;
(PID.TID 0000.0001) cStanton_2 = /* coef used in Stanton number calculation [?] */
(PID.TID 0000.0001)                 1.800000000000000E-02
(PID.TID 0000.0001)     ;
(PID.TID 0000.0001) cDalton = /* coef used in Dalton number calculation [?] */
(PID.TID 0000.0001)                 3.460000000000000E-02
(PID.TID 0000.0001)     ;
(PID.TID 0000.0001) exf_scal_BulkCdn= /* Drag coefficient scaling factor [-] */
(PID.TID 0000.0001)                 1.000000000000000E+00
(PID.TID 0000.0001)     ;
(PID.TID 0000.0001) zolmin = /* minimum stability parameter [?] */
(PID.TID 0000.0001)                -1.000000000000000E+02
(PID.TID 0000.0001)     ;
(PID.TID 0000.0001) psim_fac = /* coef used in turbulent fluxes calculation [-] */
(PID.TID 0000.0001)                 5.000000000000000E+00
(PID.TID 0000.0001)     ;
(PID.TID 0000.0001) zref =  /* reference height [ m ] */
(PID.TID 0000.0001)                 1.000000000000000E+01
(PID.TID 0000.0001)     ;
(PID.TID 0000.0001) hu =  /* height of mean wind [ m ] */
(PID.TID 0000.0001)                 1.000000000000000E+01
(PID.TID 0000.0001)     ;
(PID.TID 0000.0001) ht =  /* height of mean temperature [ m ] */
(PID.TID 0000.0001)                 2.000000000000000E+00
(PID.TID 0000.0001)     ;
(PID.TID 0000.0001) hq =  /* height of mean spec.humidity [ m ] */
(PID.TID 0000.0001)                 2.000000000000000E+00
(PID.TID 0000.0001)     ;
(PID.TID 0000.0001) uMin = /* minimum wind speed [m/s] */
(PID.TID 0000.0001)                 5.000000000000000E-01
(PID.TID 0000.0001)     ;
(PID.TID 0000.0001) useStabilityFct_overIce= /* transfert Coeffs over sea-ice depend on stability */
(PID.TID 0000.0001)                   F
(PID.TID 0000.0001)     ;
(PID.TID 0000.0001) exf_iceCd = /* drag coefficient over sea-ice (fixed) [-] */
(PID.TID 0000.0001)                 1.630000000000000E-03
(PID.TID 0000.0001)     ;
(PID.TID 0000.0001) exf_iceCe = /* transfert coeff. over sea-ice, for Evap (fixed) [-] */
(PID.TID 0000.0001)                 1.630000000000000E-03
(PID.TID 0000.0001)     ;
(PID.TID 0000.0001) exf_iceCh = /* transfert coeff. over sea-ice, Sens.Heat.(fixed)[-] */
(PID.TID 0000.0001)                 1.630000000000000E-03
(PID.TID 0000.0001)     ;
(PID.TID 0000.0001) exf_albedo =  /* Sea-water albedo [-] */
(PID.TID 0000.0001)                 1.000000000000000E-01
(PID.TID 0000.0001)     ;
(PID.TID 0000.0001) ocean_emissivity = /* longwave ocean-surface emissivity [-] */
(PID.TID 0000.0001)                 9.700176366843034E-01
(PID.TID 0000.0001)     ;
(PID.TID 0000.0001) ice_emissivity = /* longwave seaice emissivity [-] */
(PID.TID 0000.0001)                 9.500000000000000E-01
(PID.TID 0000.0001)     ;
(PID.TID 0000.0001) snow_emissivity = /* longwave snow  emissivity [-] */
(PID.TID 0000.0001)                 9.500000000000000E-01
(PID.TID 0000.0001)     ;
(PID.TID 0000.0001) 
(PID.TID 0000.0001)  EXF main CPP flags:
(PID.TID 0000.0001) 
(PID.TID 0000.0001) // ALLOW_ATM_TEMP:                 NOT defined
(PID.TID 0000.0001) // ALLOW_ATM_WIND:                 NOT defined
(PID.TID 0000.0001) // ALLOW_DOWNWARD_RADIATION:       NOT defined
(PID.TID 0000.0001) // ALLOW_BULKFORMULAE:             NOT defined
(PID.TID 0000.0001) 
(PID.TID 0000.0001)    Zonal wind stress forcing starts at                   0.
(PID.TID 0000.0001)    Zonal wind stress forcing period is             2592000.
(PID.TID 0000.0001)    Zonal wind stress forcing is read from file:
(PID.TID 0000.0001)    >>  trenberth_taux.bin  <<
(PID.TID 0000.0001) 
(PID.TID 0000.0001)    Meridional wind stress forcing starts at              0.
(PID.TID 0000.0001)    Meridional wind stress forcing period is        2592000.
(PID.TID 0000.0001)    Meridional wind stress forcing is read from file:
(PID.TID 0000.0001)    >>  trenberth_tauy.bin  <<
(PID.TID 0000.0001) 
(PID.TID 0000.0001)    Heat flux forcing starts at                          0.
(PID.TID 0000.0001)    Heat flux forcing period is                     2592000.
(PID.TID 0000.0001)    Heat flux forcing is read from file:
(PID.TID 0000.0001)    >>  ncep_qnet.bin  <<
(PID.TID 0000.0001) 
(PID.TID 0000.0001)    Salt flux forcing starts at                           0.
(PID.TID 0000.0001)    Salt flux forcing period is                     2592000.
(PID.TID 0000.0001)    Salt flux forcing is read from file:
(PID.TID 0000.0001)    >>    <<
(PID.TID 0000.0001) 
(PID.TID 0000.0001)    Net shortwave flux forcing starts at                0.
(PID.TID 0000.0001)    Net shortwave flux forcing period is                0.
(PID.TID 0000.0001)    Net shortwave flux forcing is read from file:
(PID.TID 0000.0001)    >>    <<
(PID.TID 0000.0001) 
(PID.TID 0000.0001) // EXF_READ_EVAP:                  NOT defined
(PID.TID 0000.0001) 
(PID.TID 0000.0001) // ALLOW_RUNOFF:                   NOT defined
(PID.TID 0000.0001) 
(PID.TID 0000.0001)    Atmospheric pressure forcing starts at                0.
(PID.TID 0000.0001)    Atmospheric pressure forcing period is                0.
(PID.TID 0000.0001)    Atmospheric pressureforcing is read from file:
(PID.TID 0000.0001)    >>    <<
(PID.TID 0000.0001) 
(PID.TID 0000.0001) // =======================================================
(PID.TID 0000.0001) // External forcing configuration  >>> END <<<
(PID.TID 0000.0001) // =======================================================
(PID.TID 0000.0001) 
(PID.TID 0000.0001) 
(PID.TID 0000.0001) // =======================================================
(PID.TID 0000.0001) // External forcing climatology configuration >>> START <<<
(PID.TID 0000.0001) // =======================================================
(PID.TID 0000.0001) 
(PID.TID 0000.0001) // ALLOW_CLIMSST_RELAXATION:           defined
(PID.TID 0000.0001) // ALLOW_CLIMSSS_RELAXATION:           defined
(PID.TID 0000.0001) 
(PID.TID 0000.0001)    Climatological SST starts at                   0.
(PID.TID 0000.0001)    Climatological SST period is             2592000.
(PID.TID 0000.0001)    Climatological SST is read from file:
(PID.TID 0000.0001)    >>  lev_sst.bin  <<
(PID.TID 0000.0001) 
(PID.TID 0000.0001)    Climatological SSS starts at                   0.
(PID.TID 0000.0001)    Climatological SSS period is             2592000.
(PID.TID 0000.0001)    Climatological SSS is read from file:
(PID.TID 0000.0001)    >>  lev_sss.bin  <<
(PID.TID 0000.0001) 
(PID.TID 0000.0001) // =======================================================
(PID.TID 0000.0001) // External forcing climatology configuration  >>> END <<<
(PID.TID 0000.0001) // =======================================================
(PID.TID 0000.0001) 
(PID.TID 0000.0001) Profiles num_file is    1 prof_exemple
(PID.TID 0000.0001) Opening num_file    1 prof_exemple.nc
(PID.TID 0000.0001)  fid, num_file, ProfNo, ProfDepthNo          4        1      218       55
(PID.TID 0000.0001) fid dimid ProfNo  4  2  1  108
(PID.TID 0000.0001) Profiles num_file is    2  empty
(PID.TID 0000.0001) Profiles num_file is    3  empty
(PID.TID 0000.0001) Profiles num_file is    4  empty
(PID.TID 0000.0001) Profiles num_file is    5  empty
(PID.TID 0000.0001) Profiles num_file is    6  empty
(PID.TID 0000.0001) Profiles num_file is    7  empty
(PID.TID 0000.0001) Profiles num_file is    8  empty
(PID.TID 0000.0001) Profiles num_file is    9  empty
(PID.TID 0000.0001) Profiles num_file is   10  empty
(PID.TID 0000.0001) Profiles num_file is    1 prof_exemple
(PID.TID 0000.0001) Opening num_file    1 prof_exemple.nc
(PID.TID 0000.0001)  fid, num_file, ProfNo, ProfDepthNo          7        1      218       55
(PID.TID 0000.0001) fid dimid ProfNo  7  2  1  110
(PID.TID 0000.0001) Profiles num_file is    2  empty
(PID.TID 0000.0001) Profiles num_file is    3  empty
(PID.TID 0000.0001) Profiles num_file is    4  empty
(PID.TID 0000.0001) Profiles num_file is    5  empty
(PID.TID 0000.0001) Profiles num_file is    6  empty
(PID.TID 0000.0001) Profiles num_file is    7  empty
(PID.TID 0000.0001) Profiles num_file is    8  empty
(PID.TID 0000.0001) Profiles num_file is    9  empty
(PID.TID 0000.0001) Profiles num_file is   10  empty
(PID.TID 0000.0001) ------------------------------------------------------------
(PID.TID 0000.0001) DIAGNOSTICS_SET_LEVELS: done
(PID.TID 0000.0001)  Total Nb of available Diagnostics: ndiagt= 201
(PID.TID 0000.0001)  write list of available Diagnostics to file: available_diagnostics.log
(PID.TID 0000.0001) SETDIAG: Allocate  1 x  1 Levels for Diagnostic # 176 EXFtaux
(PID.TID 0000.0001) SETDIAG: Allocate  1 x  1 Levels for Diagnostic # 177 EXFtauy
(PID.TID 0000.0001) SETDIAG: Allocate  1 x  1 Levels for Diagnostic # 175 EXFqnet
(PID.TID 0000.0001) SETDIAG: Allocate  1 x  1 Levels for Diagnostic # 186 EXFempmr
(PID.TID 0000.0001) SETDIAG: Allocate 15 x  1 Levels for Diagnostic #  27 SALT
(PID.TID 0000.0001) SETDIAG: Allocate 15 x  1 Levels for Diagnostic #  26 THETA
(PID.TID 0000.0001) SETDIAG: Allocate 15 x  1 Levels for Diagnostic #  30 UVEL
(PID.TID 0000.0001) SETDIAG: Allocate 15 x  1 Levels for Diagnostic #  31 VVEL
(PID.TID 0000.0001)   space allocated for all diagnostics:    64 levels
(PID.TID 0000.0001)   set mate pointer for diag #  30  UVEL     , Parms: UU   031MR
(PID.TID 0000.0001)   set mate pointer for diag #  31  VVEL     , Parms: VV   030MR
(PID.TID 0000.0001) DIAGNOSTICS_SET_POINTERS: Set levels for Outp.Stream: EXFtaux
(PID.TID 0000.0001)  Levels:       1.
(PID.TID 0000.0001) DIAGNOSTICS_SET_POINTERS: Set levels for Outp.Stream: EXFtauy
(PID.TID 0000.0001)  Levels:       1.
(PID.TID 0000.0001) DIAGNOSTICS_SET_POINTERS: Set levels for Outp.Stream: EXFqnet
(PID.TID 0000.0001)  Levels:       1.
(PID.TID 0000.0001) DIAGNOSTICS_SET_POINTERS: Set levels for Outp.Stream: EXFempmr
(PID.TID 0000.0001)  Levels:       1.
(PID.TID 0000.0001) DIAGNOSTICS_SET_POINTERS: done
(PID.TID 0000.0001) ------------------------------------------------------------
(PID.TID 0000.0001) DIAGSTATS_SET_REGIONS: define no region
(PID.TID 0000.0001) ------------------------------------------------------------
(PID.TID 0000.0001)   space allocated for all stats-diags:     0 levels
(PID.TID 0000.0001) DIAGSTATS_SET_POINTERS: done
(PID.TID 0000.0001) ------------------------------------------------------------
(PID.TID 0000.0001) GAD_CHECK: #define ALLOW_GENERIC_ADVDIFF
(PID.TID 0000.0001) GMREDI_CHECK: #define GMREDI
(PID.TID 0000.0001) GM_AdvForm =  /* if FALSE => use SkewFlux Form */
(PID.TID 0000.0001)                   F
(PID.TID 0000.0001)     ;
(PID.TID 0000.0001) GM_AdvSeparate = /* Calc Bolus & Euler Adv. separately */
(PID.TID 0000.0001)                   F
(PID.TID 0000.0001)     ;
(PID.TID 0000.0001) GM_ExtraDiag =  /* Tensor Extra Diag (line 1&2) non 0 */
(PID.TID 0000.0001)                   F
(PID.TID 0000.0001)     ;
(PID.TID 0000.0001) GM_isopycK =   /* Background Isopyc. Diffusivity ( m^2/s ) */
(PID.TID 0000.0001)                 1.000000000000000E+03
(PID.TID 0000.0001)     ;
(PID.TID 0000.0001)  GM_skewflx*K =   /* Background GM_SkewFlx Diffusivity ( m^2/s ) */
(PID.TID 0000.0001)                 1.000000000000000E+03
(PID.TID 0000.0001)     ;
(PID.TID 0000.0001)  GM_advec*K =   /* Backg. GM-Advec(=Bolus) Diffusivity ( m^2/s ) */
(PID.TID 0000.0001)                 0.000000000000000E+00
(PID.TID 0000.0001)     ;
(PID.TID 0000.0001)  GM_Visbeck_alpha =   /* Visbeck alpha coeff. ( ) */
(PID.TID 0000.0001)                 0.000000000000000E+00
(PID.TID 0000.0001)     ;
(PID.TID 0000.0001)  Tapering/Cliping : gkw91
(PID.TID 0000.0001)  GM_Small_Number =  /* epsilon used in slope calc */
(PID.TID 0000.0001)                 9.999999999999999E-21
(PID.TID 0000.0001)     ;
(PID.TID 0000.0001)  GM_slopeSqCutoff =  /* Slope^2 cut-off value */
(PID.TID 0000.0001)                 1.000000000000000E+48
(PID.TID 0000.0001)     ;
(PID.TID 0000.0001) %MON fCori_max                    =   1.4226580169407E-04
(PID.TID 0000.0001) %MON fCori_min                    =  -1.4226580169407E-04
(PID.TID 0000.0001) %MON fCori_mean                   =   1.5961865317148E-21
(PID.TID 0000.0001) %MON fCori_sd                     =   9.6335367303779E-05
(PID.TID 0000.0001) %MON fCoriG_max                   =   1.4112379284621E-04
(PID.TID 0000.0001) %MON fCoriG_min                   =  -1.4323448157692E-04
(PID.TID 0000.0001) %MON fCoriG_mean                  =  -3.6726790147928E-06
(PID.TID 0000.0001) %MON fCoriG_sd                    =   9.7510077443651E-05
(PID.TID 0000.0001) %MON fCoriCos_max                 =   1.4535550371427E-04
(PID.TID 0000.0001) %MON fCoriCos_min                 =   3.0239529651320E-05
(PID.TID 0000.0001) %MON fCoriCos_mean                =   1.0260497651149E-04
(PID.TID 0000.0001) %MON fCoriCos_sd                  =   3.6683828681187E-05
(PID.TID 0000.0001) INI_CG2D: CG2D normalisation factor =  6.5682677425711703E-05
(PID.TID 0000.0001) 
(PID.TID 0000.0001) CONFIG_CHECK: OK
(PID.TID 0000.0001) // =======================================================
(PID.TID 0000.0001) // Model configuration
(PID.TID 0000.0001) // =======================================================
(PID.TID 0000.0001) //
(PID.TID 0000.0001) // "Physical" paramters ( PARM01 in namelist )
(PID.TID 0000.0001) //
(PID.TID 0000.0001) buoyancyRelation = /* Type of relation to get Buoyancy */
(PID.TID 0000.0001)               'OCEANIC'
(PID.TID 0000.0001)     ;
(PID.TID 0000.0001) fluidIsAir  =  /* fluid major constituent is Air */
(PID.TID 0000.0001)                   F
(PID.TID 0000.0001)     ;
(PID.TID 0000.0001) fluidIsWater=  /* fluid major constituent is Water */
(PID.TID 0000.0001)                   T
(PID.TID 0000.0001)     ;
(PID.TID 0000.0001) usingPCoords =  /* use p (or p*) vertical coordinate */
(PID.TID 0000.0001)                   F
(PID.TID 0000.0001)     ;
(PID.TID 0000.0001) usingZCoords =  /* use z (or z*) vertical coordinate */
(PID.TID 0000.0001)                   T
(PID.TID 0000.0001)     ;
(PID.TID 0000.0001) tRef =   /* Reference temperature profile ( oC or K ) */
(PID.TID 0000.0001)    15 @  2.000000000000000E+01              /* K =  1: 15 */
(PID.TID 0000.0001)     ;
(PID.TID 0000.0001) sRef =   /* Reference salinity profile ( psu ) */
(PID.TID 0000.0001)    15 @  3.500000000000000E+01              /* K =  1: 15 */
(PID.TID 0000.0001)     ;
(PID.TID 0000.0001) viscAh =   /* Lateral eddy viscosity ( m^2/s ) */
(PID.TID 0000.0001)                 5.000000000000000E+05
(PID.TID 0000.0001)     ;
(PID.TID 0000.0001) viscAhMax =   /* Maximum lateral eddy viscosity ( m^2/s ) */
(PID.TID 0000.0001)                 1.000000000000000E+21
(PID.TID 0000.0001)     ;
(PID.TID 0000.0001) viscAhGrid =   /* Grid dependent lateral eddy viscosity ( non-dim. ) */
(PID.TID 0000.0001)                 0.000000000000000E+00
(PID.TID 0000.0001)     ;
(PID.TID 0000.0001) useFullLeith =   /* Use Full Form of Leith Viscosity on/off flag*/
(PID.TID 0000.0001)                   F
(PID.TID 0000.0001)     ;
(PID.TID 0000.0001) useStrainTensionVisc =   /* Use StrainTension Form of Viscous Operator on/off flag*/
(PID.TID 0000.0001)                   F
(PID.TID 0000.0001)     ;
(PID.TID 0000.0001) useAreaViscLength =   /* Use area for visc length instead of geom. mean*/
(PID.TID 0000.0001)                   F
(PID.TID 0000.0001)     ;
(PID.TID 0000.0001) viscC2leith = /* Leith harmonic visc. factor (on grad(vort),non-dim.) */
(PID.TID 0000.0001)                 0.000000000000000E+00
(PID.TID 0000.0001)     ;
(PID.TID 0000.0001) viscC2leithD = /* Leith harmonic viscosity factor (on grad(div),non-dim.) */
(PID.TID 0000.0001)                 0.000000000000000E+00
(PID.TID 0000.0001)     ;
(PID.TID 0000.0001) viscC2smag =   /* Smagorinsky harmonic viscosity factor (non-dim.) */
(PID.TID 0000.0001)                 0.000000000000000E+00
(PID.TID 0000.0001)     ;
(PID.TID 0000.0001) viscA4 =   /* Lateral biharmonic viscosity ( m^4/s ) */
(PID.TID 0000.0001)                 0.000000000000000E+00
(PID.TID 0000.0001)     ;
(PID.TID 0000.0001) viscA4Max =   /* Maximum biharmonic viscosity ( m^2/s ) */
(PID.TID 0000.0001)                 1.000000000000000E+21
(PID.TID 0000.0001)     ;
(PID.TID 0000.0001) viscA4Grid =   /* Grid dependent biharmonic viscosity ( non-dim. ) */
(PID.TID 0000.0001)                 0.000000000000000E+00
(PID.TID 0000.0001)     ;
(PID.TID 0000.0001) viscC4leith = /* Leith biharm viscosity factor (on grad(vort), non-dim.) */
(PID.TID 0000.0001)                 0.000000000000000E+00
(PID.TID 0000.0001)     ;
(PID.TID 0000.0001) viscC4leithD = /* Leith biharm viscosity factor (on grad(div), non-dim.) */
(PID.TID 0000.0001)                 0.000000000000000E+00
(PID.TID 0000.0001)     ;
(PID.TID 0000.0001) viscC4Smag = /* Smagorinsky biharm viscosity factor (non-dim) */
(PID.TID 0000.0001)                 0.000000000000000E+00
(PID.TID 0000.0001)     ;
(PID.TID 0000.0001) no_slip_sides =  /* Viscous BCs: No-slip sides */
(PID.TID 0000.0001)                   T
(PID.TID 0000.0001)     ;
(PID.TID 0000.0001) sideDragFactor = /* side-drag scaling factor (non-dim) */
(PID.TID 0000.0001)                 2.000000000000000E+00
(PID.TID 0000.0001)     ;
(PID.TID 0000.0001) viscAr =   /* Vertical eddy viscosity ( units of r^2/s ) */
(PID.TID 0000.0001)                 1.000000000000000E-03
(PID.TID 0000.0001)     ;
(PID.TID 0000.0001) no_slip_bottom =  /* Viscous BCs: No-slip bottom */
(PID.TID 0000.0001)                   T
(PID.TID 0000.0001)     ;
(PID.TID 0000.0001) bottomDragLinear = /* linear bottom-drag coefficient ( 1/s ) */
(PID.TID 0000.0001)                 0.000000000000000E+00
(PID.TID 0000.0001)     ;
(PID.TID 0000.0001) bottomDragQuadratic = /* quadratic bottom-drag coeff. ( 1/m ) */
(PID.TID 0000.0001)                 0.000000000000000E+00
(PID.TID 0000.0001)     ;
(PID.TID 0000.0001) diffKhT =   /* Laplacian diffusion of heat laterally ( m^2/s ) */
(PID.TID 0000.0001)                 0.000000000000000E+00
(PID.TID 0000.0001)     ;
(PID.TID 0000.0001) diffK4T =   /* Bihaarmonic diffusion of heat laterally ( m^4/s ) */
(PID.TID 0000.0001)                 0.000000000000000E+00
(PID.TID 0000.0001)     ;
(PID.TID 0000.0001) diffKhS =   /* Laplacian diffusion of salt laterally ( m^2/s ) */
(PID.TID 0000.0001)                 0.000000000000000E+00
(PID.TID 0000.0001)     ;
(PID.TID 0000.0001) diffK4S =   /* Bihaarmonic diffusion of salt laterally ( m^4/s ) */
(PID.TID 0000.0001)                 0.000000000000000E+00
(PID.TID 0000.0001)     ;
(PID.TID 0000.0001) diffKrNrT = /* vertical profile of vertical diffusion of Temp ( m^2/s )*/
(PID.TID 0000.0001)    15 @  3.000000000000000E-05              /* K =  1: 15 */
(PID.TID 0000.0001)     ;
(PID.TID 0000.0001) diffKrNrS = /* vertical profile of vertical diffusion of Salt ( m^2/s )*/
(PID.TID 0000.0001)    15 @  3.000000000000000E-05              /* K =  1: 15 */
(PID.TID 0000.0001)     ;
(PID.TID 0000.0001) diffKrBL79surf =   /* Surface diffusion for Bryan and Lewis 1979 ( m^2/s ) */
(PID.TID 0000.0001)                 0.000000000000000E+00
(PID.TID 0000.0001)     ;
(PID.TID 0000.0001) diffKrBL79deep =   /* Deep diffusion for Bryan and Lewis 1979 ( m^2/s ) */
(PID.TID 0000.0001)                 0.000000000000000E+00
(PID.TID 0000.0001)     ;
(PID.TID 0000.0001) diffKrBL79scl =   /* Depth scale for Bryan and Lewis 1979 ( m ) */
(PID.TID 0000.0001)                 2.000000000000000E+02
(PID.TID 0000.0001)     ;
(PID.TID 0000.0001) diffKrBL79Ho =   /* Turning depth for Bryan and Lewis 1979 ( m ) */
(PID.TID 0000.0001)                -2.000000000000000E+03
(PID.TID 0000.0001)     ;
(PID.TID 0000.0001) ivdc_kappa = /* Implicit Vertical Diffusivity for Convection ( m^2/s ) */
(PID.TID 0000.0001)                 1.000000000000000E+02
(PID.TID 0000.0001)     ;
(PID.TID 0000.0001) hMixCriteria=  /* Criteria for mixed-layer diagnostic */
(PID.TID 0000.0001)                -8.000000000000000E-01
(PID.TID 0000.0001)     ;
(PID.TID 0000.0001) eosType =  /* Type of Equation of State */
(PID.TID 0000.0001)               'POLY3 '
(PID.TID 0000.0001)     ;
(PID.TID 0000.0001) tAlpha =   /* Linear EOS thermal expansion coefficient ( 1/oC ) */
(PID.TID 0000.0001)                 1.234567000000000E+05
(PID.TID 0000.0001)     ;
(PID.TID 0000.0001) sBeta =   /* Linear EOS haline contraction coefficient ( 1/psu ) */
(PID.TID 0000.0001)                 1.234567000000000E+05
(PID.TID 0000.0001)     ;
(PID.TID 0000.0001)   1  13.497  32.600  24.548  -0.202   0.773  -0.005  -0.002   0.000   0.000   0.000   0.000   0.000
(PID.TID 0000.0001)   2  13.488  32.600  24.819  -0.204   0.773  -0.005  -0.002   0.000   0.000   0.000   0.000   0.000
(PID.TID 0000.0001)   3  13.476  32.600  25.201  -0.205   0.772  -0.005  -0.002   0.000   0.000   0.000   0.000   0.000
(PID.TID 0000.0001)   4   8.469  35.150  28.642  -0.163   0.784  -0.005  -0.002   0.000   0.000   0.000   0.000   0.000
(PID.TID 0000.0001)   5   8.451  35.150  29.393  -0.167   0.782  -0.005  -0.002   0.000   0.000   0.000   0.000   0.000
(PID.TID 0000.0001)   6   5.940  34.900  30.563  -0.144   0.786  -0.005  -0.002  -0.001   0.000   0.000   0.000   0.000
(PID.TID 0000.0001)   7   4.425  34.900  31.985  -0.134   0.788  -0.005  -0.003   0.000   0.000   0.000   0.000   0.000
(PID.TID 0000.0001)   8   2.911  34.750  33.505  -0.125   0.789  -0.006  -0.003   0.000   0.000   0.000   0.000   0.000
(PID.TID 0000.0001)   9   1.893  34.800  35.341  -0.123   0.789  -0.006  -0.003   0.000   0.000   0.000   0.000   0.000
(PID.TID 0000.0001)  10   1.367  34.800  37.299  -0.129   0.787  -0.006  -0.003   0.000   0.000   0.000   0.000   0.000
(PID.TID 0000.0001)  11   1.327  34.800  39.405  -0.141   0.783  -0.005  -0.003   0.000   0.000   0.000   0.000   0.000
(PID.TID 0000.0001)  12   0.791  34.800  41.788  -0.149   0.780  -0.005  -0.003   0.000   0.000   0.000   0.000   0.000
(PID.TID 0000.0001)  13   0.736  34.750  44.259  -0.164   0.776  -0.005  -0.002   0.000   0.000   0.000   0.000   0.000
(PID.TID 0000.0001)  14   0.186  34.750  47.044  -0.175   0.773  -0.005  -0.002   0.000   0.000   0.000   0.000   0.000
(PID.TID 0000.0001)  15   0.595  34.750  49.835  -0.196   0.767  -0.004  -0.002   0.000   0.000   0.000   0.000   0.000
(PID.TID 0000.0001) rhonil =   /* Reference density ( kg/m^3 ) */
(PID.TID 0000.0001)                 1.035000000000000E+03
(PID.TID 0000.0001)     ;
(PID.TID 0000.0001) rhoConst =   /* Reference density ( kg/m^3 ) */
(PID.TID 0000.0001)                 1.035000000000000E+03
(PID.TID 0000.0001)     ;
(PID.TID 0000.0001) rhoFacC = /* normalized Reference density @ cell-Center (-) */
(PID.TID 0000.0001)    15 @  1.000000000000000E+00              /* K =  1: 15 */
(PID.TID 0000.0001)     ;
(PID.TID 0000.0001) rhoFacF = /* normalized Reference density @ W-Interface (-) */
(PID.TID 0000.0001)    16 @  1.000000000000000E+00              /* K =  1: 16 */
(PID.TID 0000.0001)     ;
(PID.TID 0000.0001) rhoConstFresh =   /* Reference density ( kg/m^3 ) */
(PID.TID 0000.0001)                 1.035000000000000E+03
(PID.TID 0000.0001)     ;
(PID.TID 0000.0001) gravity =   /* Gravitational acceleration ( m/s^2 ) */
(PID.TID 0000.0001)                 9.810000000000000E+00
(PID.TID 0000.0001)     ;
(PID.TID 0000.0001) gBaro =   /* Barotropic gravity ( m/s^2 ) */
(PID.TID 0000.0001)                 9.810000000000000E+00
(PID.TID 0000.0001)     ;
(PID.TID 0000.0001) rotationPeriod =   /* Rotation Period ( s ) */
(PID.TID 0000.0001)                 8.640000000000000E+04
(PID.TID 0000.0001)     ;
(PID.TID 0000.0001) omega =   /* Angular velocity ( rad/s ) */
(PID.TID 0000.0001)                 7.272205216643040E-05
(PID.TID 0000.0001)     ;
(PID.TID 0000.0001) f0 =   /* Reference coriolis parameter ( 1/s ) */
(PID.TID 0000.0001)                 1.000000000000000E-04
(PID.TID 0000.0001)     ;
(PID.TID 0000.0001) beta =   /* Beta ( 1/(m.s) ) */
(PID.TID 0000.0001)                 9.999999999999999E-12
(PID.TID 0000.0001)     ;
(PID.TID 0000.0001) freeSurfFac =   /* Implicit free surface factor */
(PID.TID 0000.0001)                 1.000000000000000E+00
(PID.TID 0000.0001)     ;
(PID.TID 0000.0001) implicitFreeSurface =   /* Implicit free surface on/off flag */
(PID.TID 0000.0001)                   T
(PID.TID 0000.0001)     ;
(PID.TID 0000.0001) rigidLid =   /* Rigid lid on/off flag */
(PID.TID 0000.0001)                   F
(PID.TID 0000.0001)     ;
(PID.TID 0000.0001) implicSurfPress =   /* Surface Pressure implicit factor (0-1)*/
(PID.TID 0000.0001)                 1.000000000000000E+00
(PID.TID 0000.0001)     ;
(PID.TID 0000.0001) implicDiv2Dflow =   /* Barot. Flow Div. implicit factor (0-1)*/
(PID.TID 0000.0001)                 1.000000000000000E+00
(PID.TID 0000.0001)     ;
(PID.TID 0000.0001) exactConserv =   /* Exact Volume Conservation on/off flag*/
(PID.TID 0000.0001)                   F
(PID.TID 0000.0001)     ;
(PID.TID 0000.0001) linFSConserveTr =   /* Tracer correction for Lin Free Surface on/off flag*/
(PID.TID 0000.0001)                   F
(PID.TID 0000.0001)     ;
(PID.TID 0000.0001) uniformLin_PhiSurf =   /* use uniform Bo_surf on/off flag*/
(PID.TID 0000.0001)                   T
(PID.TID 0000.0001)     ;
(PID.TID 0000.0001) nonlinFreeSurf =   /* Non-linear Free Surf. options (-1,0,1,2,3)*/
(PID.TID 0000.0001)                       0
(PID.TID 0000.0001)     ;
(PID.TID 0000.0001)      -1,0= Off ; 1,2,3= On, 2=+rescale gU,gV, 3=+update cg2d solv.
(PID.TID 0000.0001) hFacInf =   /* lower threshold for hFac (nonlinFreeSurf only)*/
(PID.TID 0000.0001)                 2.000000000000000E-01
(PID.TID 0000.0001)     ;
(PID.TID 0000.0001) hFacSup =   /* upper threshold for hFac (nonlinFreeSurf only)*/
(PID.TID 0000.0001)                 2.000000000000000E+00
(PID.TID 0000.0001)     ;
(PID.TID 0000.0001) select_rStar =   /* r* Coordinate options (not yet implemented)*/
(PID.TID 0000.0001)                       0
(PID.TID 0000.0001)     ;
(PID.TID 0000.0001) useRealFreshWaterFlux =   /* Real Fresh Water Flux on/off flag*/
(PID.TID 0000.0001)                   T
(PID.TID 0000.0001)     ;
(PID.TID 0000.0001) convertFW2Salt = /* convert F.W. Flux to Salt Flux (-1=use local S)(ppt)*/
(PID.TID 0000.0001)                -1.000000000000000E+00
(PID.TID 0000.0001)     ;
(PID.TID 0000.0001) use3Dsolver = /* use 3-D pressure solver on/off flag */
(PID.TID 0000.0001)                   F
(PID.TID 0000.0001)     ;
(PID.TID 0000.0001) nonHydrostatic =  /* Non-Hydrostatic on/off flag */
(PID.TID 0000.0001)                   F
(PID.TID 0000.0001)     ;
(PID.TID 0000.0001) nh_Am2 = /* Non-Hydrostatic terms scaling factor */
(PID.TID 0000.0001)                 1.000000000000000E+00
(PID.TID 0000.0001)     ;
(PID.TID 0000.0001) quasiHydrostatic = /* Quasi-Hydrostatic on/off flag */
(PID.TID 0000.0001)                   F
(PID.TID 0000.0001)     ;
(PID.TID 0000.0001) momStepping =  /* Momentum equation on/off flag */
(PID.TID 0000.0001)                   T
(PID.TID 0000.0001)     ;
(PID.TID 0000.0001) vectorInvariantMomentum= /* Vector-Invariant Momentum on/off */
(PID.TID 0000.0001)                   F
(PID.TID 0000.0001)     ;
(PID.TID 0000.0001) momAdvection =  /* Momentum advection on/off flag */
(PID.TID 0000.0001)                   T
(PID.TID 0000.0001)     ;
(PID.TID 0000.0001) momViscosity =  /* Momentum viscosity on/off flag */
(PID.TID 0000.0001)                   T
(PID.TID 0000.0001)     ;
(PID.TID 0000.0001) momImplVertAdv =/* Momentum implicit vert. advection on/off*/
(PID.TID 0000.0001)                   F
(PID.TID 0000.0001)     ;
(PID.TID 0000.0001) implicitViscosity = /* Implicit viscosity on/off flag */
(PID.TID 0000.0001)                   F
(PID.TID 0000.0001)     ;
(PID.TID 0000.0001) metricTerms =  /* metric-Terms on/off flag */
(PID.TID 0000.0001)                   T
(PID.TID 0000.0001)     ;
(PID.TID 0000.0001) useNHMTerms = /* Non-Hydrostatic Metric-Terms on/off */
(PID.TID 0000.0001)                   T
(PID.TID 0000.0001)     ;
(PID.TID 0000.0001) useConstantF =  /* use Constant f0 Coriolis flag */
(PID.TID 0000.0001)                   F
(PID.TID 0000.0001)     ;
(PID.TID 0000.0001) useBetaPlaneF = /* use Beta-Plane Coriolis flag */
(PID.TID 0000.0001)                   F
(PID.TID 0000.0001)     ;
(PID.TID 0000.0001) useSphereF  =   /* use Spherical Coriolis flag */
(PID.TID 0000.0001)                   T
(PID.TID 0000.0001)     ;
(PID.TID 0000.0001) use3dCoriolis = /* 3-D Coriolis on/off flag */
(PID.TID 0000.0001)                   F
(PID.TID 0000.0001)     ;
(PID.TID 0000.0001) useCoriolis =  /* Coriolis on/off flag */
(PID.TID 0000.0001)                   T
(PID.TID 0000.0001)     ;
(PID.TID 0000.0001) useCDscheme =  /* CD scheme on/off flag */
(PID.TID 0000.0001)                   T
(PID.TID 0000.0001)     ;
(PID.TID 0000.0001) useJamartWetPoints= /* Coriolis WetPoints method flag */
(PID.TID 0000.0001)                   F
(PID.TID 0000.0001)     ;
(PID.TID 0000.0001) useJamartMomAdv= /* V.I. Non-linear terms Jamart flag */
(PID.TID 0000.0001)                   F
(PID.TID 0000.0001)     ;
(PID.TID 0000.0001) SadournyCoriolis= /* Sadourny Coriolis discr. flag */
(PID.TID 0000.0001)                   F
(PID.TID 0000.0001)     ;
(PID.TID 0000.0001) upwindVorticity= /* Upwind bias vorticity flag */
(PID.TID 0000.0001)                   F
(PID.TID 0000.0001)     ;
(PID.TID 0000.0001) useAbsVorticity= /* Work with f+zeta in Coriolis */
(PID.TID 0000.0001)                   F
(PID.TID 0000.0001)     ;
(PID.TID 0000.0001) highOrderVorticity= /* High order interp. of vort. flag */
(PID.TID 0000.0001)                   F
(PID.TID 0000.0001)     ;
(PID.TID 0000.0001) upwindShear= /* Upwind vertical Shear advection flag */
(PID.TID 0000.0001)                   F
(PID.TID 0000.0001)     ;
(PID.TID 0000.0001) selectKEscheme= /* Kinetic Energy scheme selector */
(PID.TID 0000.0001)                       0
(PID.TID 0000.0001)     ;
(PID.TID 0000.0001) momForcing =  /* Momentum forcing on/off flag */
(PID.TID 0000.0001)                   T
(PID.TID 0000.0001)     ;
(PID.TID 0000.0001) momPressureForcing =  /* Momentum pressure term on/off flag */
(PID.TID 0000.0001)                   T
(PID.TID 0000.0001)     ;
(PID.TID 0000.0001) implicitIntGravWave= /* Implicit Internal Gravity Wave flag */
(PID.TID 0000.0001)                   F
(PID.TID 0000.0001)     ;
(PID.TID 0000.0001) staggerTimeStep =   /* Stagger time stepping on/off flag */
(PID.TID 0000.0001)                   F
(PID.TID 0000.0001)     ;
(PID.TID 0000.0001) multiDimAdvection =   /* enable/disable Multi-Dim Advection */
(PID.TID 0000.0001)                   T
(PID.TID 0000.0001)     ;
(PID.TID 0000.0001) useMultiDimAdvec =   /* Multi-Dim Advection is/is-not used */
(PID.TID 0000.0001)                   F
(PID.TID 0000.0001)     ;
(PID.TID 0000.0001) implicitDiffusion =/* Implicit Diffusion on/off flag */
(PID.TID 0000.0001)                   T
(PID.TID 0000.0001)     ;
(PID.TID 0000.0001) tempStepping =  /* Temperature equation on/off flag */
(PID.TID 0000.0001)                   T
(PID.TID 0000.0001)     ;
(PID.TID 0000.0001) tempAdvection=  /* Temperature advection on/off flag */
(PID.TID 0000.0001)                   T
(PID.TID 0000.0001)     ;
(PID.TID 0000.0001) tempImplVertAdv =/* Temp. implicit vert. advection on/off */
(PID.TID 0000.0001)                   F
(PID.TID 0000.0001)     ;
(PID.TID 0000.0001) tempForcing  =  /* Temperature forcing on/off flag */
(PID.TID 0000.0001)                   T
(PID.TID 0000.0001)     ;
(PID.TID 0000.0001) saltStepping =  /* Salinity equation on/off flag */
(PID.TID 0000.0001)                   T
(PID.TID 0000.0001)     ;
(PID.TID 0000.0001) saltAdvection=  /* Salinity advection on/off flag */
(PID.TID 0000.0001)                   T
(PID.TID 0000.0001)     ;
(PID.TID 0000.0001) saltImplVertAdv =/* Sali. implicit vert. advection on/off */
(PID.TID 0000.0001)                   F
(PID.TID 0000.0001)     ;
(PID.TID 0000.0001) saltForcing  =  /* Salinity forcing on/off flag */
(PID.TID 0000.0001)                   T
(PID.TID 0000.0001)     ;
(PID.TID 0000.0001)  readBinaryPrec = /* Precision used for reading binary files */
(PID.TID 0000.0001)                      32
(PID.TID 0000.0001)     ;
(PID.TID 0000.0001) writeBinaryPrec = /* Precision used for writing binary files */
(PID.TID 0000.0001)                      32
(PID.TID 0000.0001)     ;
(PID.TID 0000.0001)  globalFiles = /* write "global" (=not per tile) files */
(PID.TID 0000.0001)                   F
(PID.TID 0000.0001)     ;
(PID.TID 0000.0001)  useSingleCpuIO = /* only master MPI process does I/O */
(PID.TID 0000.0001)                   T
(PID.TID 0000.0001)     ;
(PID.TID 0000.0001)  debugMode  =  /* Debug Mode on/off flag */
(PID.TID 0000.0001)                   F
(PID.TID 0000.0001)     ;
(PID.TID 0000.0001)    debLevA  =  /* 1rst level of debugging */
(PID.TID 0000.0001)                       1
(PID.TID 0000.0001)     ;
(PID.TID 0000.0001)    debLevB  =  /* 2nd  level of debugging */
(PID.TID 0000.0001)                       2
(PID.TID 0000.0001)     ;
(PID.TID 0000.0001)  debugLevel =  /* select debugging level */
(PID.TID 0000.0001)                       1
(PID.TID 0000.0001)     ;
(PID.TID 0000.0001) //
(PID.TID 0000.0001) // Elliptic solver(s) paramters ( PARM02 in namelist )
(PID.TID 0000.0001) //
(PID.TID 0000.0001) cg2dMaxIters =   /* Upper limit on 2d con. grad iterations  */
(PID.TID 0000.0001)                     500
(PID.TID 0000.0001)     ;
(PID.TID 0000.0001) cg2dChkResFreq =   /* 2d con. grad convergence test frequency */
(PID.TID 0000.0001)                       1
(PID.TID 0000.0001)     ;
(PID.TID 0000.0001) cg2dTargetResidual =   /* 2d con. grad target residual  */
(PID.TID 0000.0001)                 1.000000000000000E-13
(PID.TID 0000.0001)     ;
(PID.TID 0000.0001) cg2dTargetResWunit =   /* CG2d target residual [W units] */
(PID.TID 0000.0001)                -1.000000000000000E+00
(PID.TID 0000.0001)     ;
(PID.TID 0000.0001) cg2dPreCondFreq =   /* Freq. for updating cg2d preconditioner */
(PID.TID 0000.0001)                       1
(PID.TID 0000.0001)     ;
(PID.TID 0000.0001) //
(PID.TID 0000.0001) // Time stepping paramters ( PARM03 in namelist )
(PID.TID 0000.0001) //
(PID.TID 0000.0001) nIter0 =   /* Run starting timestep number  */
(PID.TID 0000.0001)                       0
(PID.TID 0000.0001)     ;
(PID.TID 0000.0001) nTimeSteps =   /* Number of timesteps */
(PID.TID 0000.0001)                      20
(PID.TID 0000.0001)     ;
(PID.TID 0000.0001) deltaTmom =   /* Momentum equation timestep ( s ) */
(PID.TID 0000.0001)                 1.200000000000000E+03
(PID.TID 0000.0001)     ;
(PID.TID 0000.0001) deltaTfreesurf =   /* FreeSurface equation timestep ( s ) */
(PID.TID 0000.0001)                 1.200000000000000E+03
(PID.TID 0000.0001)     ;
(PID.TID 0000.0001) dTtracerLev =   /* Tracer equation timestep ( s ) */
(PID.TID 0000.0001)    15 @  4.320000000000000E+04              /* K =  1: 15 */
(PID.TID 0000.0001)     ;
(PID.TID 0000.0001) deltaTClock  =   /* Model clock timestep ( s ) */
(PID.TID 0000.0001)                 4.320000000000000E+04
(PID.TID 0000.0001)     ;
(PID.TID 0000.0001) cAdjFreq =   /* Convective adjustment interval ( s ) */
(PID.TID 0000.0001)                 0.000000000000000E+00
(PID.TID 0000.0001)     ;
(PID.TID 0000.0001) momForcingOutAB = /* =1: take Momentum Forcing out of Adams-Bash. stepping */
(PID.TID 0000.0001)                       0
(PID.TID 0000.0001)     ;
(PID.TID 0000.0001) tracForcingOutAB = /* =1: take T,S,pTr Forcing out of Adams-Bash. stepping */
(PID.TID 0000.0001)                       0
(PID.TID 0000.0001)     ;
(PID.TID 0000.0001) momDissip_In_AB = /* put Dissipation Tendency in Adams-Bash. stepping */
(PID.TID 0000.0001)                   T
(PID.TID 0000.0001)     ;
(PID.TID 0000.0001) doAB_onGtGs = /* apply AB on Tendencies (rather than on T,S)*/
(PID.TID 0000.0001)                   T
(PID.TID 0000.0001)     ;
(PID.TID 0000.0001) abEps =   /* Adams-Bashforth-2 stabilizing weight */
(PID.TID 0000.0001)                 1.000000000000000E-01
(PID.TID 0000.0001)     ;
(PID.TID 0000.0001) tauCD =   /* CD coupling time-scale ( s ) */
(PID.TID 0000.0001)                 3.214280000000000E+05
(PID.TID 0000.0001)     ;
(PID.TID 0000.0001) rCD =   /* Normalised CD coupling parameter */
(PID.TID 0000.0001)                 9.962666600296178E-01
(PID.TID 0000.0001)     ;
(PID.TID 0000.0001) baseTime =   /* Model base time ( s ). */
(PID.TID 0000.0001)                 0.000000000000000E+00
(PID.TID 0000.0001)     ;
(PID.TID 0000.0001) startTime =   /* Run start time ( s ). */
(PID.TID 0000.0001)                 0.000000000000000E+00
(PID.TID 0000.0001)     ;
(PID.TID 0000.0001) endTime =   /* Integration ending time ( s ). */
(PID.TID 0000.0001)                 8.640000000000000E+05
(PID.TID 0000.0001)     ;
(PID.TID 0000.0001) pChkPtFreq =   /* Permanent restart/checkpoint file interval ( s ). */
(PID.TID 0000.0001)                 3.110400000000000E+08
(PID.TID 0000.0001)     ;
(PID.TID 0000.0001) chkPtFreq =   /* Rolling restart/checkpoint file interval ( s ). */
(PID.TID 0000.0001)                 0.000000000000000E+00
(PID.TID 0000.0001)     ;
(PID.TID 0000.0001) pickup_write_mdsio =   /* Model IO flag. */
(PID.TID 0000.0001)                   T
(PID.TID 0000.0001)     ;
(PID.TID 0000.0001) pickup_read_mdsio =   /* Model IO flag. */
(PID.TID 0000.0001)                   T
(PID.TID 0000.0001)     ;
(PID.TID 0000.0001) pickup_write_immed =   /* Model IO flag. */
(PID.TID 0000.0001)                   F
(PID.TID 0000.0001)     ;
(PID.TID 0000.0001) dumpFreq =   /* Model state write out interval ( s ). */
(PID.TID 0000.0001)                 8.640000000000000E+05
(PID.TID 0000.0001)     ;
(PID.TID 0000.0001) dumpInitAndLast= /* write out Initial & Last iter. model state */
(PID.TID 0000.0001)                   T
(PID.TID 0000.0001)     ;
(PID.TID 0000.0001) snapshot_mdsio =   /* Model IO flag. */
(PID.TID 0000.0001)                   T
(PID.TID 0000.0001)     ;
(PID.TID 0000.0001) monitorFreq =   /* Monitor output interval ( s ). */
(PID.TID 0000.0001)                 1.000000000000000E+00
(PID.TID 0000.0001)     ;
(PID.TID 0000.0001) monitor_stdio =   /* Model IO flag. */
(PID.TID 0000.0001)                   T
(PID.TID 0000.0001)     ;
(PID.TID 0000.0001) externForcingPeriod =   /* forcing period (s) */
(PID.TID 0000.0001)                 0.000000000000000E+00
(PID.TID 0000.0001)     ;
(PID.TID 0000.0001) externForcingCycle =   /* period of the cyle (s). */
(PID.TID 0000.0001)                 0.000000000000000E+00
(PID.TID 0000.0001)     ;
(PID.TID 0000.0001) tauThetaClimRelax =   /* relaxation time scale (s) */
(PID.TID 0000.0001)                 5.184000000000000E+06
(PID.TID 0000.0001)     ;
(PID.TID 0000.0001) tauSaltClimRelax =   /* relaxation time scale (s) */
(PID.TID 0000.0001)                 1.555200000000000E+07
(PID.TID 0000.0001)     ;
(PID.TID 0000.0001) latBandClimRelax =   /* max. Lat. where relaxation */
(PID.TID 0000.0001)                 1.800000000000000E+02
(PID.TID 0000.0001)     ;
(PID.TID 0000.0001) //
(PID.TID 0000.0001) // Gridding paramters ( PARM04 in namelist )
(PID.TID 0000.0001) //
(PID.TID 0000.0001) usingCartesianGrid = /* Cartesian coordinates flag ( True/False ) */
(PID.TID 0000.0001)                   F
(PID.TID 0000.0001)     ;
(PID.TID 0000.0001) usingCylindricalGrid = /* Cylindrical coordinates flag ( True/False ) */
(PID.TID 0000.0001)                   F
(PID.TID 0000.0001)     ;
(PID.TID 0000.0001) usingSphericalPolarGrid = /* Spherical coordinates flag ( True/False ) */
(PID.TID 0000.0001)                   T
(PID.TID 0000.0001)     ;
(PID.TID 0000.0001) usingCurvilinearGrid = /* Curvilinear coordinates flag ( True/False ) */
(PID.TID 0000.0001)                   F
(PID.TID 0000.0001)     ;
(PID.TID 0000.0001) Ro_SeaLevel = /* r(1) ( units of r ) */
(PID.TID 0000.0001)                 0.000000000000000E+00
(PID.TID 0000.0001)     ;
(PID.TID 0000.0001) rkSign =   /* index orientation relative to vertical coordinate */
(PID.TID 0000.0001)                -1.000000000000000E+00
(PID.TID 0000.0001)     ;
(PID.TID 0000.0001) gravitySign = /* gravity orientation relative to vertical coordinate */
(PID.TID 0000.0001)                -1.000000000000000E+00
(PID.TID 0000.0001)     ;
(PID.TID 0000.0001) horiVertRatio =   /* Ratio on units : Horiz - Vertical */
(PID.TID 0000.0001)                 1.000000000000000E+00
(PID.TID 0000.0001)     ;
(PID.TID 0000.0001) drC =   /* C spacing ( units of r ) */
(PID.TID 0000.0001)                 2.500000000000000E+01,      /* K =  1 */
(PID.TID 0000.0001)                 6.000000000000000E+01,      /* K =  2 */
(PID.TID 0000.0001)                 8.500000000000000E+01,      /* K =  3 */
(PID.TID 0000.0001)                 1.200000000000000E+02,      /* K =  4 */
(PID.TID 0000.0001)                 1.650000000000000E+02,      /* K =  5 */
(PID.TID 0000.0001)                 2.150000000000000E+02,      /* K =  6 */
(PID.TID 0000.0001)                 2.650000000000000E+02,      /* K =  7 */
(PID.TID 0000.0001)                 3.150000000000000E+02,      /* K =  8 */
(PID.TID 0000.0001)                 3.650000000000000E+02,      /* K =  9 */
(PID.TID 0000.0001)                 4.150000000000000E+02,      /* K = 10 */
(PID.TID 0000.0001)                 4.650000000000000E+02,      /* K = 11 */
(PID.TID 0000.0001)                 5.150000000000000E+02,      /* K = 12 */
(PID.TID 0000.0001)                 5.650000000000000E+02,      /* K = 13 */
(PID.TID 0000.0001)                 6.150000000000000E+02,      /* K = 14 */
(PID.TID 0000.0001)                 6.650000000000000E+02       /* K = 15 */
(PID.TID 0000.0001)     ;
(PID.TID 0000.0001) drF =   /* W spacing ( units of r ) */
(PID.TID 0000.0001)                 5.000000000000000E+01,      /* K =  1 */
(PID.TID 0000.0001)                 7.000000000000000E+01,      /* K =  2 */
(PID.TID 0000.0001)                 1.000000000000000E+02,      /* K =  3 */
(PID.TID 0000.0001)                 1.400000000000000E+02,      /* K =  4 */
(PID.TID 0000.0001)                 1.900000000000000E+02,      /* K =  5 */
(PID.TID 0000.0001)                 2.400000000000000E+02,      /* K =  6 */
(PID.TID 0000.0001)                 2.900000000000000E+02,      /* K =  7 */
(PID.TID 0000.0001)                 3.400000000000000E+02,      /* K =  8 */
(PID.TID 0000.0001)                 3.900000000000000E+02,      /* K =  9 */
(PID.TID 0000.0001)                 4.400000000000000E+02,      /* K = 10 */
(PID.TID 0000.0001)                 4.900000000000000E+02,      /* K = 11 */
(PID.TID 0000.0001)                 5.400000000000000E+02,      /* K = 12 */
(PID.TID 0000.0001)                 5.900000000000000E+02,      /* K = 13 */
(PID.TID 0000.0001)                 6.400000000000000E+02,      /* K = 14 */
(PID.TID 0000.0001)                 6.900000000000000E+02       /* K = 15 */
(PID.TID 0000.0001)     ;
(PID.TID 0000.0001) delX =   /* U spacing ( m - cartesian, degrees - spherical ) */
(PID.TID 0000.0001)    90 @  4.000000000000000E+00              /* I =  1: 90 */
(PID.TID 0000.0001)     ;
(PID.TID 0000.0001) delY =   /* V spacing ( m - cartesian, degrees - spherical ) */
(PID.TID 0000.0001)    40 @  4.000000000000000E+00              /* J =  1: 40 */
(PID.TID 0000.0001)     ;
(PID.TID 0000.0001) phiMin =    /* South edge (ignored - cartesian, degrees - spherical ) */
(PID.TID 0000.0001)                -8.000000000000000E+01
(PID.TID 0000.0001)     ;
(PID.TID 0000.0001) thetaMin =    /* West edge ( ignored - cartesian, degrees - spherical ) */
(PID.TID 0000.0001)                 0.000000000000000E+00
(PID.TID 0000.0001)     ;
(PID.TID 0000.0001) rSphere =  /* Radius ( ignored - cartesian, m - spherical ) */
(PID.TID 0000.0001)                 6.370000000000000E+06
(PID.TID 0000.0001)     ;
(PID.TID 0000.0001) deepAtmosphere = /* Deep/Shallow Atmosphere flag (True/False) */
(PID.TID 0000.0001)                   F
(PID.TID 0000.0001)     ;
(PID.TID 0000.0001) xcoord =   /* P-point X coord ( m - cartesian, degrees - spherical ) */
(PID.TID 0000.0001)                 2.000000000000000E+00,      /* I =  1 */
(PID.TID 0000.0001)                 6.000000000000000E+00,      /* I =  2 */
(PID.TID 0000.0001)                 1.000000000000000E+01,      /* I =  3 */
(PID.TID 0000.0001)                 1.400000000000000E+01,      /* I =  4 */
(PID.TID 0000.0001)                 1.800000000000000E+01,      /* I =  5 */
(PID.TID 0000.0001)                 2.200000000000000E+01,      /* I =  6 */
(PID.TID 0000.0001)                 2.600000000000000E+01,      /* I =  7 */
(PID.TID 0000.0001)                 3.000000000000000E+01,      /* I =  8 */
(PID.TID 0000.0001)                 3.400000000000000E+01,      /* I =  9 */
(PID.TID 0000.0001)                 3.800000000000000E+01,      /* I = 10 */
(PID.TID 0000.0001)                 4.200000000000000E+01,      /* I = 11 */
(PID.TID 0000.0001)                 4.600000000000000E+01,      /* I = 12 */
(PID.TID 0000.0001)                 5.000000000000000E+01,      /* I = 13 */
(PID.TID 0000.0001)                 5.400000000000000E+01,      /* I = 14 */
(PID.TID 0000.0001)                 5.800000000000000E+01,      /* I = 15 */
(PID.TID 0000.0001)                 6.200000000000000E+01,      /* I = 16 */
(PID.TID 0000.0001)                 6.600000000000000E+01,      /* I = 17 */
(PID.TID 0000.0001)                 7.000000000000000E+01,      /* I = 18 */
(PID.TID 0000.0001)                 7.400000000000000E+01,      /* I = 19 */
(PID.TID 0000.0001)                 7.800000000000000E+01,      /* I = 20 */
(PID.TID 0000.0001)                 8.200000000000000E+01,      /* I = 21 */
(PID.TID 0000.0001)                 8.600000000000000E+01,      /* I = 22 */
(PID.TID 0000.0001)                 9.000000000000000E+01,      /* I = 23 */
(PID.TID 0000.0001)                 9.400000000000000E+01,      /* I = 24 */
(PID.TID 0000.0001)                 9.800000000000000E+01,      /* I = 25 */
(PID.TID 0000.0001)                 1.020000000000000E+02,      /* I = 26 */
(PID.TID 0000.0001)                 1.060000000000000E+02,      /* I = 27 */
(PID.TID 0000.0001)                 1.100000000000000E+02,      /* I = 28 */
(PID.TID 0000.0001)                 1.140000000000000E+02,      /* I = 29 */
(PID.TID 0000.0001)                 1.180000000000000E+02,      /* I = 30 */
(PID.TID 0000.0001)                 1.220000000000000E+02,      /* I = 31 */
(PID.TID 0000.0001)                 1.260000000000000E+02,      /* I = 32 */
(PID.TID 0000.0001)                 1.300000000000000E+02,      /* I = 33 */
(PID.TID 0000.0001)                 1.340000000000000E+02,      /* I = 34 */
(PID.TID 0000.0001)                 1.380000000000000E+02,      /* I = 35 */
(PID.TID 0000.0001)                 1.420000000000000E+02,      /* I = 36 */
(PID.TID 0000.0001)                 1.460000000000000E+02,      /* I = 37 */
(PID.TID 0000.0001)                 1.500000000000000E+02,      /* I = 38 */
(PID.TID 0000.0001)                 1.540000000000000E+02,      /* I = 39 */
(PID.TID 0000.0001)                 1.580000000000000E+02,      /* I = 40 */
(PID.TID 0000.0001)                 1.620000000000000E+02,      /* I = 41 */
(PID.TID 0000.0001)                 1.660000000000000E+02,      /* I = 42 */
(PID.TID 0000.0001)                 1.700000000000000E+02,      /* I = 43 */
(PID.TID 0000.0001)                 1.740000000000000E+02,      /* I = 44 */
(PID.TID 0000.0001)                 1.780000000000000E+02,      /* I = 45 */
(PID.TID 0000.0001)                 1.820000000000000E+02,      /* I = 46 */
(PID.TID 0000.0001)                 1.860000000000000E+02,      /* I = 47 */
(PID.TID 0000.0001)                 1.900000000000000E+02,      /* I = 48 */
(PID.TID 0000.0001)                 1.940000000000000E+02,      /* I = 49 */
(PID.TID 0000.0001)                 1.980000000000000E+02,      /* I = 50 */
(PID.TID 0000.0001)                 2.020000000000000E+02,      /* I = 51 */
(PID.TID 0000.0001)                 2.060000000000000E+02,      /* I = 52 */
(PID.TID 0000.0001)                 2.100000000000000E+02,      /* I = 53 */
(PID.TID 0000.0001)                 2.140000000000000E+02,      /* I = 54 */
(PID.TID 0000.0001)                 2.180000000000000E+02,      /* I = 55 */
(PID.TID 0000.0001)                 2.220000000000000E+02,      /* I = 56 */
(PID.TID 0000.0001)                 2.260000000000000E+02,      /* I = 57 */
(PID.TID 0000.0001)                 2.300000000000000E+02,      /* I = 58 */
(PID.TID 0000.0001)                 2.340000000000000E+02,      /* I = 59 */
(PID.TID 0000.0001)                 2.380000000000000E+02,      /* I = 60 */
(PID.TID 0000.0001)                 2.420000000000000E+02,      /* I = 61 */
(PID.TID 0000.0001)                 2.460000000000000E+02,      /* I = 62 */
(PID.TID 0000.0001)                 2.500000000000000E+02,      /* I = 63 */
(PID.TID 0000.0001)                 2.540000000000000E+02,      /* I = 64 */
(PID.TID 0000.0001)                 2.580000000000000E+02,      /* I = 65 */
(PID.TID 0000.0001)                 2.620000000000000E+02,      /* I = 66 */
(PID.TID 0000.0001)                 2.660000000000000E+02,      /* I = 67 */
(PID.TID 0000.0001)                 2.700000000000000E+02,      /* I = 68 */
(PID.TID 0000.0001)                 2.740000000000000E+02,      /* I = 69 */
(PID.TID 0000.0001)                 2.780000000000000E+02,      /* I = 70 */
(PID.TID 0000.0001)                 2.820000000000000E+02,      /* I = 71 */
(PID.TID 0000.0001)                 2.860000000000000E+02,      /* I = 72 */
(PID.TID 0000.0001)                 2.900000000000000E+02,      /* I = 73 */
(PID.TID 0000.0001)                 2.940000000000000E+02,      /* I = 74 */
(PID.TID 0000.0001)                 2.980000000000000E+02,      /* I = 75 */
(PID.TID 0000.0001)                 3.020000000000000E+02,      /* I = 76 */
(PID.TID 0000.0001)                 3.060000000000000E+02,      /* I = 77 */
(PID.TID 0000.0001)                 3.100000000000000E+02,      /* I = 78 */
(PID.TID 0000.0001)                 3.140000000000000E+02,      /* I = 79 */
(PID.TID 0000.0001)                 3.180000000000000E+02,      /* I = 80 */
(PID.TID 0000.0001)                 3.220000000000000E+02,      /* I = 81 */
(PID.TID 0000.0001)                 3.260000000000000E+02,      /* I = 82 */
(PID.TID 0000.0001)                 3.300000000000000E+02,      /* I = 83 */
(PID.TID 0000.0001)                 3.340000000000000E+02,      /* I = 84 */
(PID.TID 0000.0001)                 3.380000000000000E+02,      /* I = 85 */
(PID.TID 0000.0001)                 3.420000000000000E+02,      /* I = 86 */
(PID.TID 0000.0001)                 3.460000000000000E+02,      /* I = 87 */
(PID.TID 0000.0001)                 3.500000000000000E+02,      /* I = 88 */
(PID.TID 0000.0001)                 3.540000000000000E+02,      /* I = 89 */
(PID.TID 0000.0001)                 3.580000000000000E+02       /* I = 90 */
(PID.TID 0000.0001)     ;
(PID.TID 0000.0001) ycoord =   /* P-point Y coord ( m - cartesian, degrees - spherical ) */
(PID.TID 0000.0001)                -7.800000000000000E+01,      /* J =  1 */
(PID.TID 0000.0001)                -7.400000000000000E+01,      /* J =  2 */
(PID.TID 0000.0001)                -7.000000000000000E+01,      /* J =  3 */
(PID.TID 0000.0001)                -6.600000000000000E+01,      /* J =  4 */
(PID.TID 0000.0001)                -6.200000000000000E+01,      /* J =  5 */
(PID.TID 0000.0001)                -5.800000000000000E+01,      /* J =  6 */
(PID.TID 0000.0001)                -5.400000000000000E+01,      /* J =  7 */
(PID.TID 0000.0001)                -5.000000000000000E+01,      /* J =  8 */
(PID.TID 0000.0001)                -4.600000000000000E+01,      /* J =  9 */
(PID.TID 0000.0001)                -4.200000000000000E+01,      /* J = 10 */
(PID.TID 0000.0001)                -3.800000000000000E+01,      /* J = 11 */
(PID.TID 0000.0001)                -3.400000000000000E+01,      /* J = 12 */
(PID.TID 0000.0001)                -3.000000000000000E+01,      /* J = 13 */
(PID.TID 0000.0001)                -2.600000000000000E+01,      /* J = 14 */
(PID.TID 0000.0001)                -2.200000000000000E+01,      /* J = 15 */
(PID.TID 0000.0001)                -1.800000000000000E+01,      /* J = 16 */
(PID.TID 0000.0001)                -1.400000000000000E+01,      /* J = 17 */
(PID.TID 0000.0001)                -1.000000000000000E+01,      /* J = 18 */
(PID.TID 0000.0001)                -6.000000000000000E+00,      /* J = 19 */
(PID.TID 0000.0001)                -2.000000000000000E+00,      /* J = 20 */
(PID.TID 0000.0001)                 2.000000000000000E+00,      /* J = 21 */
(PID.TID 0000.0001)                 6.000000000000000E+00,      /* J = 22 */
(PID.TID 0000.0001)                 1.000000000000000E+01,      /* J = 23 */
(PID.TID 0000.0001)                 1.400000000000000E+01,      /* J = 24 */
(PID.TID 0000.0001)                 1.800000000000000E+01,      /* J = 25 */
(PID.TID 0000.0001)                 2.200000000000000E+01,      /* J = 26 */
(PID.TID 0000.0001)                 2.600000000000000E+01,      /* J = 27 */
(PID.TID 0000.0001)                 3.000000000000000E+01,      /* J = 28 */
(PID.TID 0000.0001)                 3.400000000000000E+01,      /* J = 29 */
(PID.TID 0000.0001)                 3.800000000000000E+01,      /* J = 30 */
(PID.TID 0000.0001)                 4.200000000000000E+01,      /* J = 31 */
(PID.TID 0000.0001)                 4.600000000000000E+01,      /* J = 32 */
(PID.TID 0000.0001)                 5.000000000000000E+01,      /* J = 33 */
(PID.TID 0000.0001)                 5.400000000000000E+01,      /* J = 34 */
(PID.TID 0000.0001)                 5.800000000000000E+01,      /* J = 35 */
(PID.TID 0000.0001)                 6.200000000000000E+01,      /* J = 36 */
(PID.TID 0000.0001)                 6.600000000000000E+01,      /* J = 37 */
(PID.TID 0000.0001)                 7.000000000000000E+01,      /* J = 38 */
(PID.TID 0000.0001)                 7.400000000000000E+01,      /* J = 39 */
(PID.TID 0000.0001)                 7.800000000000000E+01       /* J = 40 */
(PID.TID 0000.0001)     ;
(PID.TID 0000.0001) rcoord =   /* P-point R coordinate (  units of r ) */
(PID.TID 0000.0001)                -2.500000000000000E+01,      /* K =  1 */
(PID.TID 0000.0001)                -8.500000000000000E+01,      /* K =  2 */
(PID.TID 0000.0001)                -1.700000000000000E+02,      /* K =  3 */
(PID.TID 0000.0001)                -2.900000000000000E+02,      /* K =  4 */
(PID.TID 0000.0001)                -4.550000000000000E+02,      /* K =  5 */
(PID.TID 0000.0001)                -6.700000000000000E+02,      /* K =  6 */
(PID.TID 0000.0001)                -9.350000000000000E+02,      /* K =  7 */
(PID.TID 0000.0001)                -1.250000000000000E+03,      /* K =  8 */
(PID.TID 0000.0001)                -1.615000000000000E+03,      /* K =  9 */
(PID.TID 0000.0001)                -2.030000000000000E+03,      /* K = 10 */
(PID.TID 0000.0001)                -2.495000000000000E+03,      /* K = 11 */
(PID.TID 0000.0001)                -3.010000000000000E+03,      /* K = 12 */
(PID.TID 0000.0001)                -3.575000000000000E+03,      /* K = 13 */
(PID.TID 0000.0001)                -4.190000000000000E+03,      /* K = 14 */
(PID.TID 0000.0001)                -4.855000000000000E+03       /* K = 15 */
(PID.TID 0000.0001)     ;
(PID.TID 0000.0001) rF =   /* W-Interf. R coordinate (  units of r ) */
(PID.TID 0000.0001)                 0.000000000000000E+00,      /* K =  1 */
(PID.TID 0000.0001)                -5.000000000000000E+01,      /* K =  2 */
(PID.TID 0000.0001)                -1.200000000000000E+02,      /* K =  3 */
(PID.TID 0000.0001)                -2.200000000000000E+02,      /* K =  4 */
(PID.TID 0000.0001)                -3.600000000000000E+02,      /* K =  5 */
(PID.TID 0000.0001)                -5.500000000000000E+02,      /* K =  6 */
(PID.TID 0000.0001)                -7.900000000000000E+02,      /* K =  7 */
(PID.TID 0000.0001)                -1.080000000000000E+03,      /* K =  8 */
(PID.TID 0000.0001)                -1.420000000000000E+03,      /* K =  9 */
(PID.TID 0000.0001)                -1.810000000000000E+03,      /* K = 10 */
(PID.TID 0000.0001)                -2.250000000000000E+03,      /* K = 11 */
(PID.TID 0000.0001)                -2.740000000000000E+03,      /* K = 12 */
(PID.TID 0000.0001)                -3.280000000000000E+03,      /* K = 13 */
(PID.TID 0000.0001)                -3.870000000000000E+03,      /* K = 14 */
(PID.TID 0000.0001)                -4.510000000000000E+03,      /* K = 15 */
(PID.TID 0000.0001)                -5.200000000000000E+03       /* K = 16 */
(PID.TID 0000.0001)     ;
(PID.TID 0000.0001) deepFacC = /* deep-model grid factor @ cell-Center (-) */
(PID.TID 0000.0001)    15 @  1.000000000000000E+00              /* K =  1: 15 */
(PID.TID 0000.0001)     ;
(PID.TID 0000.0001) deepFacF = /* deep-model grid factor @ W-Interface (-) */
(PID.TID 0000.0001)    16 @  1.000000000000000E+00              /* K =  1: 16 */
(PID.TID 0000.0001)     ;
(PID.TID 0000.0001) rVel2wUnit = /* convert units: rVel -> wSpeed (=1 if z-coord)*/
(PID.TID 0000.0001)    16 @  1.000000000000000E+00              /* K =  1: 16 */
(PID.TID 0000.0001)     ;
(PID.TID 0000.0001) wUnit2rVel = /* convert units: wSpeed -> rVel (=1 if z-coord)*/
(PID.TID 0000.0001)    16 @  1.000000000000000E+00              /* K =  1: 16 */
(PID.TID 0000.0001)     ;
(PID.TID 0000.0001) dBdrRef = /* Vertical gradient of reference boyancy [(m/s/r)^2)] */
(PID.TID 0000.0001)    15 @  0.000000000000000E+00              /* K =  1: 15 */
(PID.TID 0000.0001)     ;
(PID.TID 0000.0001) dxF =  /* dxF(:,1,:,1) ( units: m ) */
(PID.TID 0000.0001)    90 @  9.246038586187513E+04              /* I =  1: 90 */
(PID.TID 0000.0001)     ;
(PID.TID 0000.0001) dxF =  /* dxF(1,:,1,:) ( units: m ) */
(PID.TID 0000.0001)                 9.246038586187513E+04,      /* J =  1 */
(PID.TID 0000.0001)                 1.225786591246834E+05,      /* J =  2 */
(PID.TID 0000.0001)                 1.520997414818001E+05,      /* J =  3 */
(PID.TID 0000.0001)                 1.808798091874300E+05,      /* J =  4 */
(PID.TID 0000.0001)                 2.087786486446736E+05,      /* J =  5 */
(PID.TID 0000.0001)                 2.356603395120765E+05,      /* J =  6 */
(PID.TID 0000.0001)                 2.613939168938713E+05,      /* J =  7 */
(PID.TID 0000.0001)                 2.858540093877838E+05,      /* J =  8 */
(PID.TID 0000.0001)                 3.089214498819034E+05,      /* J =  9 */
(PID.TID 0000.0001)                 3.304838561248741E+05,      /* J = 10 */
(PID.TID 0000.0001)                 3.504361782409254E+05,      /* J = 11 */
(PID.TID 0000.0001)                 3.686812105223082E+05,      /* J = 12 */
(PID.TID 0000.0001)                 3.851300650057323E+05,      /* J = 13 */
(PID.TID 0000.0001)                 3.997026045255871E+05,      /* J = 14 */
(PID.TID 0000.0001)                 4.123278331341585E+05,      /* J = 15 */
(PID.TID 0000.0001)                 4.229442419867491E+05,      /* J = 16 */
(PID.TID 0000.0001)                 4.315001090065870E+05,      /* J = 17 */
(PID.TID 0000.0001)                 4.379537508695838E+05,      /* J = 18 */
(PID.TID 0000.0001)                 4.422737260813012E+05,      /* J = 19 */
(PID.TID 0000.0001)     2 @  4.444389881567502E+05,             /* J = 20: 21 */
(PID.TID 0000.0001)                 4.422737260813012E+05,      /* J = 22 */
(PID.TID 0000.0001)                 4.379537508695838E+05,      /* J = 23 */
(PID.TID 0000.0001)                 4.315001090065870E+05,      /* J = 24 */
(PID.TID 0000.0001)                 4.229442419867491E+05,      /* J = 25 */
(PID.TID 0000.0001)                 4.123278331341585E+05,      /* J = 26 */
(PID.TID 0000.0001)                 3.997026045255871E+05,      /* J = 27 */
(PID.TID 0000.0001)                 3.851300650057323E+05,      /* J = 28 */
(PID.TID 0000.0001)                 3.686812105223082E+05,      /* J = 29 */
(PID.TID 0000.0001)                 3.504361782409254E+05,      /* J = 30 */
(PID.TID 0000.0001)                 3.304838561248741E+05,      /* J = 31 */
(PID.TID 0000.0001)                 3.089214498819034E+05,      /* J = 32 */
(PID.TID 0000.0001)                 2.858540093877838E+05,      /* J = 33 */
(PID.TID 0000.0001)                 2.613939168938713E+05,      /* J = 34 */
(PID.TID 0000.0001)                 2.356603395120765E+05,      /* J = 35 */
(PID.TID 0000.0001)                 2.087786486446736E+05,      /* J = 36 */
(PID.TID 0000.0001)                 1.808798091874300E+05,      /* J = 37 */
(PID.TID 0000.0001)                 1.520997414818001E+05,      /* J = 38 */
(PID.TID 0000.0001)                 1.225786591246834E+05,      /* J = 39 */
(PID.TID 0000.0001)                 9.246038586187513E+04       /* J = 40 */
(PID.TID 0000.0001)     ;
(PID.TID 0000.0001) dyF =  /* dyF(:,1,:,1) ( units: m ) */
(PID.TID 0000.0001)    90 @  4.447098934081552E+05              /* I =  1: 90 */
(PID.TID 0000.0001)     ;
(PID.TID 0000.0001) dyF =  /* dyF(1,:,1,:) ( units: m ) */
(PID.TID 0000.0001)    40 @  4.447098934081552E+05              /* J =  1: 40 */
(PID.TID 0000.0001)     ;
(PID.TID 0000.0001) dxG =  /* dxG(:,1,:,1) ( units: m ) */
(PID.TID 0000.0001)    90 @  7.722306258078101E+04              /* I =  1: 90 */
(PID.TID 0000.0001)     ;
(PID.TID 0000.0001) dxG =  /* dxG(1,:,1,:) ( units: m ) */
(PID.TID 0000.0001)                 7.722306258078101E+04,      /* J =  1 */
(PID.TID 0000.0001)                 1.075850604052271E+05,      /* J =  2 */
(PID.TID 0000.0001)                 1.374229146297914E+05,      /* J =  3 */
(PID.TID 0000.0001)                 1.665912582279823E+05,      /* J =  4 */
(PID.TID 0000.0001)                 1.949479859617814E+05,      /* J =  5 */
(PID.TID 0000.0001)                 2.223549467040777E+05,      /* J =  6 */
(PID.TID 0000.0001)                 2.486786164970726E+05,      /* J =  7 */
(PID.TID 0000.0001)                 2.737907490675810E+05,      /* J =  8 */
(PID.TID 0000.0001)                 2.975690006299821E+05,      /* J =  9 */
(PID.TID 0000.0001)                 3.198975259328452E+05,      /* J = 10 */
(PID.TID 0000.0001)                 3.406675426453503E+05,      /* J = 11 */
(PID.TID 0000.0001)                 3.597778613338690E+05,      /* J = 12 */
(PID.TID 0000.0001)                 3.771353784467131E+05,      /* J = 13 */
(PID.TID 0000.0001)                 3.926555299052806E+05,      /* J = 14 */
(PID.TID 0000.0001)                 4.062627030917454E+05,      /* J = 15 */
(PID.TID 0000.0001)                 4.178906052261313E+05,      /* J = 16 */
(PID.TID 0000.0001)                 4.274825863380723E+05,      /* J = 17 */
(PID.TID 0000.0001)                 4.349919152597734E+05,      /* J = 18 */
(PID.TID 0000.0001)                 4.403820072955634E+05,      /* J = 19 */
(PID.TID 0000.0001)                 4.436266024588540E+05,      /* J = 20 */
(PID.TID 0000.0001)                 4.447098934081552E+05,      /* J = 21 */
(PID.TID 0000.0001)                 4.436266024588540E+05,      /* J = 22 */
(PID.TID 0000.0001)                 4.403820072955634E+05,      /* J = 23 */
(PID.TID 0000.0001)                 4.349919152597734E+05,      /* J = 24 */
(PID.TID 0000.0001)                 4.274825863380723E+05,      /* J = 25 */
(PID.TID 0000.0001)                 4.178906052261313E+05,      /* J = 26 */
(PID.TID 0000.0001)                 4.062627030917454E+05,      /* J = 27 */
(PID.TID 0000.0001)                 3.926555299052806E+05,      /* J = 28 */
(PID.TID 0000.0001)                 3.771353784467131E+05,      /* J = 29 */
(PID.TID 0000.0001)                 3.597778613338690E+05,      /* J = 30 */
(PID.TID 0000.0001)                 3.406675426453503E+05,      /* J = 31 */
(PID.TID 0000.0001)                 3.198975259328452E+05,      /* J = 32 */
(PID.TID 0000.0001)                 2.975690006299821E+05,      /* J = 33 */
(PID.TID 0000.0001)                 2.737907490675810E+05,      /* J = 34 */
(PID.TID 0000.0001)                 2.486786164970726E+05,      /* J = 35 */
(PID.TID 0000.0001)                 2.223549467040777E+05,      /* J = 36 */
(PID.TID 0000.0001)                 1.949479859617814E+05,      /* J = 37 */
(PID.TID 0000.0001)                 1.665912582279823E+05,      /* J = 38 */
(PID.TID 0000.0001)                 1.374229146297914E+05,      /* J = 39 */
(PID.TID 0000.0001)                 1.075850604052271E+05       /* J = 40 */
(PID.TID 0000.0001)     ;
(PID.TID 0000.0001) dyG =  /* dyG(:,1,:,1) ( units: m ) */
(PID.TID 0000.0001)    90 @  4.447098934081552E+05              /* I =  1: 90 */
(PID.TID 0000.0001)     ;
(PID.TID 0000.0001) dyG =  /* dyG(1,:,1,:) ( units: m ) */
(PID.TID 0000.0001)    40 @  4.447098934081552E+05              /* J =  1: 40 */
(PID.TID 0000.0001)     ;
(PID.TID 0000.0001) dxC =  /* dxC(:,1,:,1) ( units: m ) */
(PID.TID 0000.0001)    90 @  9.246038586187513E+04              /* I =  1: 90 */
(PID.TID 0000.0001)     ;
(PID.TID 0000.0001) dxC =  /* dxC(1,:,1,:) ( units: m ) */
(PID.TID 0000.0001)                 9.246038586187513E+04,      /* J =  1 */
(PID.TID 0000.0001)                 1.225786591246834E+05,      /* J =  2 */
(PID.TID 0000.0001)                 1.520997414818001E+05,      /* J =  3 */
(PID.TID 0000.0001)                 1.808798091874300E+05,      /* J =  4 */
(PID.TID 0000.0001)                 2.087786486446736E+05,      /* J =  5 */
(PID.TID 0000.0001)                 2.356603395120765E+05,      /* J =  6 */
(PID.TID 0000.0001)                 2.613939168938713E+05,      /* J =  7 */
(PID.TID 0000.0001)                 2.858540093877838E+05,      /* J =  8 */
(PID.TID 0000.0001)                 3.089214498819034E+05,      /* J =  9 */
(PID.TID 0000.0001)                 3.304838561248741E+05,      /* J = 10 */
(PID.TID 0000.0001)                 3.504361782409254E+05,      /* J = 11 */
(PID.TID 0000.0001)                 3.686812105223082E+05,      /* J = 12 */
(PID.TID 0000.0001)                 3.851300650057323E+05,      /* J = 13 */
(PID.TID 0000.0001)                 3.997026045255871E+05,      /* J = 14 */
(PID.TID 0000.0001)                 4.123278331341585E+05,      /* J = 15 */
(PID.TID 0000.0001)                 4.229442419867491E+05,      /* J = 16 */
(PID.TID 0000.0001)                 4.315001090065870E+05,      /* J = 17 */
(PID.TID 0000.0001)                 4.379537508695838E+05,      /* J = 18 */
(PID.TID 0000.0001)                 4.422737260813012E+05,      /* J = 19 */
(PID.TID 0000.0001)     2 @  4.444389881567502E+05,             /* J = 20: 21 */
(PID.TID 0000.0001)                 4.422737260813012E+05,      /* J = 22 */
(PID.TID 0000.0001)                 4.379537508695838E+05,      /* J = 23 */
(PID.TID 0000.0001)                 4.315001090065870E+05,      /* J = 24 */
(PID.TID 0000.0001)                 4.229442419867491E+05,      /* J = 25 */
(PID.TID 0000.0001)                 4.123278331341585E+05,      /* J = 26 */
(PID.TID 0000.0001)                 3.997026045255871E+05,      /* J = 27 */
(PID.TID 0000.0001)                 3.851300650057323E+05,      /* J = 28 */
(PID.TID 0000.0001)                 3.686812105223082E+05,      /* J = 29 */
(PID.TID 0000.0001)                 3.504361782409254E+05,      /* J = 30 */
(PID.TID 0000.0001)                 3.304838561248741E+05,      /* J = 31 */
(PID.TID 0000.0001)                 3.089214498819034E+05,      /* J = 32 */
(PID.TID 0000.0001)                 2.858540093877838E+05,      /* J = 33 */
(PID.TID 0000.0001)                 2.613939168938713E+05,      /* J = 34 */
(PID.TID 0000.0001)                 2.356603395120765E+05,      /* J = 35 */
(PID.TID 0000.0001)                 2.087786486446736E+05,      /* J = 36 */
(PID.TID 0000.0001)                 1.808798091874300E+05,      /* J = 37 */
(PID.TID 0000.0001)                 1.520997414818001E+05,      /* J = 38 */
(PID.TID 0000.0001)                 1.225786591246834E+05,      /* J = 39 */
(PID.TID 0000.0001)                 9.246038586187513E+04       /* J = 40 */
(PID.TID 0000.0001)     ;
(PID.TID 0000.0001) dyC =  /* dyC(:,1,:,1) ( units: m ) */
(PID.TID 0000.0001)    90 @  4.447098934081552E+05              /* I =  1: 90 */
(PID.TID 0000.0001)     ;
(PID.TID 0000.0001) dyC =  /* dyC(1,:,1,:) ( units: m ) */
(PID.TID 0000.0001)    40 @  4.447098934081552E+05              /* J =  1: 40 */
(PID.TID 0000.0001)     ;
(PID.TID 0000.0001) dxV =  /* dxV(:,1,:,1) ( units: m ) */
(PID.TID 0000.0001)    90 @  7.722306258078101E+04              /* I =  1: 90 */
(PID.TID 0000.0001)     ;
(PID.TID 0000.0001) dxV =  /* dxV(1,:,1,:) ( units: m ) */
(PID.TID 0000.0001)                 7.722306258078101E+04,      /* J =  1 */
(PID.TID 0000.0001)                 1.075850604052271E+05,      /* J =  2 */
(PID.TID 0000.0001)                 1.374229146297914E+05,      /* J =  3 */
(PID.TID 0000.0001)                 1.665912582279823E+05,      /* J =  4 */
(PID.TID 0000.0001)                 1.949479859617814E+05,      /* J =  5 */
(PID.TID 0000.0001)                 2.223549467040777E+05,      /* J =  6 */
(PID.TID 0000.0001)                 2.486786164970726E+05,      /* J =  7 */
(PID.TID 0000.0001)                 2.737907490675810E+05,      /* J =  8 */
(PID.TID 0000.0001)                 2.975690006299821E+05,      /* J =  9 */
(PID.TID 0000.0001)                 3.198975259328452E+05,      /* J = 10 */
(PID.TID 0000.0001)                 3.406675426453503E+05,      /* J = 11 */
(PID.TID 0000.0001)                 3.597778613338690E+05,      /* J = 12 */
(PID.TID 0000.0001)                 3.771353784467131E+05,      /* J = 13 */
(PID.TID 0000.0001)                 3.926555299052806E+05,      /* J = 14 */
(PID.TID 0000.0001)                 4.062627030917454E+05,      /* J = 15 */
(PID.TID 0000.0001)                 4.178906052261313E+05,      /* J = 16 */
(PID.TID 0000.0001)                 4.274825863380723E+05,      /* J = 17 */
(PID.TID 0000.0001)                 4.349919152597734E+05,      /* J = 18 */
(PID.TID 0000.0001)                 4.403820072955634E+05,      /* J = 19 */
(PID.TID 0000.0001)                 4.436266024588540E+05,      /* J = 20 */
(PID.TID 0000.0001)                 4.447098934081552E+05,      /* J = 21 */
(PID.TID 0000.0001)                 4.436266024588540E+05,      /* J = 22 */
(PID.TID 0000.0001)                 4.403820072955634E+05,      /* J = 23 */
(PID.TID 0000.0001)                 4.349919152597734E+05,      /* J = 24 */
(PID.TID 0000.0001)                 4.274825863380723E+05,      /* J = 25 */
(PID.TID 0000.0001)                 4.178906052261313E+05,      /* J = 26 */
(PID.TID 0000.0001)                 4.062627030917454E+05,      /* J = 27 */
(PID.TID 0000.0001)                 3.926555299052806E+05,      /* J = 28 */
(PID.TID 0000.0001)                 3.771353784467131E+05,      /* J = 29 */
(PID.TID 0000.0001)                 3.597778613338690E+05,      /* J = 30 */
(PID.TID 0000.0001)                 3.406675426453503E+05,      /* J = 31 */
(PID.TID 0000.0001)                 3.198975259328452E+05,      /* J = 32 */
(PID.TID 0000.0001)                 2.975690006299821E+05,      /* J = 33 */
(PID.TID 0000.0001)                 2.737907490675810E+05,      /* J = 34 */
(PID.TID 0000.0001)                 2.486786164970726E+05,      /* J = 35 */
(PID.TID 0000.0001)                 2.223549467040777E+05,      /* J = 36 */
(PID.TID 0000.0001)                 1.949479859617814E+05,      /* J = 37 */
(PID.TID 0000.0001)                 1.665912582279823E+05,      /* J = 38 */
(PID.TID 0000.0001)                 1.374229146297914E+05,      /* J = 39 */
(PID.TID 0000.0001)                 1.075850604052271E+05       /* J = 40 */
(PID.TID 0000.0001)     ;
(PID.TID 0000.0001) dyU =  /* dyU(:,1,:,1) ( units: m ) */
(PID.TID 0000.0001)    90 @  4.447098934081552E+05              /* I =  1: 90 */
(PID.TID 0000.0001)     ;
(PID.TID 0000.0001) dyU =  /* dyU(1,:,1,:) ( units: m ) */
(PID.TID 0000.0001)    40 @  4.447098934081552E+05              /* J =  1: 40 */
(PID.TID 0000.0001)     ;
(PID.TID 0000.0001) rA  =  /* rA (:,1,:,1) ( units: m^2 ) */
(PID.TID 0000.0001)    90 @  4.110969866729047E+10              /* I =  1: 90 */
(PID.TID 0000.0001)     ;
(PID.TID 0000.0001) rA  =  /* rA (1,:,1,:) ( units: m^2 ) */
(PID.TID 0000.0001)                 4.110969866729047E+10,      /* J =  1 */
(PID.TID 0000.0001)                 5.450087291636665E+10,      /* J =  2 */
(PID.TID 0000.0001)                 6.762652439100235E+10,      /* J =  3 */
(PID.TID 0000.0001)                 8.042270623659998E+10,      /* J =  4 */
(PID.TID 0000.0001)                 9.282707674147523E+10,      /* J =  5 */
(PID.TID 0000.0001)                 1.047792030594103E+11,      /* J =  6 */
(PID.TID 0000.0001)                 1.162208556324093E+11,      /* J =  7 */
(PID.TID 0000.0001)                 1.270962918792468E+11,      /* J =  8 */
(PID.TID 0000.0001)                 1.373525277677229E+11,      /* J =  9 */
(PID.TID 0000.0001)                 1.469395959475426E+11,      /* J = 10 */
(PID.TID 0000.0001)                 1.558107891862220E+11,      /* J = 11 */
(PID.TID 0000.0001)                 1.639228879220326E+11,      /* J = 12 */
(PID.TID 0000.0001)                 1.712363708253573E+11,      /* J = 13 */
(PID.TID 0000.0001)                 1.777156073426415E+11,      /* J = 14 */
(PID.TID 0000.0001)                 1.833290312848623E+11,      /* J = 15 */
(PID.TID 0000.0001)                 1.880492946148330E+11,      /* J = 16 */
(PID.TID 0000.0001)                 1.918534006840893E+11,      /* J = 17 */
(PID.TID 0000.0001)                 1.947228162702492E+11,      /* J = 18 */
(PID.TID 0000.0001)                 1.966435618690094E+11,      /* J = 19 */
(PID.TID 0000.0001)     2 @  1.976062798008856E+11,             /* J = 20: 21 */
(PID.TID 0000.0001)                 1.966435618690094E+11,      /* J = 22 */
(PID.TID 0000.0001)                 1.947228162702492E+11,      /* J = 23 */
(PID.TID 0000.0001)                 1.918534006840893E+11,      /* J = 24 */
(PID.TID 0000.0001)                 1.880492946148330E+11,      /* J = 25 */
(PID.TID 0000.0001)                 1.833290312848623E+11,      /* J = 26 */
(PID.TID 0000.0001)                 1.777156073426415E+11,      /* J = 27 */
(PID.TID 0000.0001)                 1.712363708253573E+11,      /* J = 28 */
(PID.TID 0000.0001)                 1.639228879220326E+11,      /* J = 29 */
(PID.TID 0000.0001)                 1.558107891862220E+11,      /* J = 30 */
(PID.TID 0000.0001)                 1.469395959475426E+11,      /* J = 31 */
(PID.TID 0000.0001)                 1.373525277677229E+11,      /* J = 32 */
(PID.TID 0000.0001)                 1.270962918792468E+11,      /* J = 33 */
(PID.TID 0000.0001)                 1.162208556324093E+11,      /* J = 34 */
(PID.TID 0000.0001)                 1.047792030594103E+11,      /* J = 35 */
(PID.TID 0000.0001)                 9.282707674147523E+10,      /* J = 36 */
(PID.TID 0000.0001)                 8.042270623659998E+10,      /* J = 37 */
(PID.TID 0000.0001)                 6.762652439100235E+10,      /* J = 38 */
(PID.TID 0000.0001)                 5.450087291636665E+10,      /* J = 39 */
(PID.TID 0000.0001)                 4.110969866729047E+10       /* J = 40 */
(PID.TID 0000.0001)     ;
(PID.TID 0000.0001) rAw =  /* rAw(:,1,:,1) ( units: m^2 ) */
(PID.TID 0000.0001)    90 @  4.110969866729047E+10              /* I =  1: 90 */
(PID.TID 0000.0001)     ;
(PID.TID 0000.0001) rAw =  /* rAw(1,:,1,:) ( units: m^2 ) */
(PID.TID 0000.0001)                 4.110969866729047E+10,      /* J =  1 */
(PID.TID 0000.0001)                 5.450087291636665E+10,      /* J =  2 */
(PID.TID 0000.0001)                 6.762652439100235E+10,      /* J =  3 */
(PID.TID 0000.0001)                 8.042270623659998E+10,      /* J =  4 */
(PID.TID 0000.0001)                 9.282707674147523E+10,      /* J =  5 */
(PID.TID 0000.0001)                 1.047792030594103E+11,      /* J =  6 */
(PID.TID 0000.0001)                 1.162208556324093E+11,      /* J =  7 */
(PID.TID 0000.0001)                 1.270962918792468E+11,      /* J =  8 */
(PID.TID 0000.0001)                 1.373525277677229E+11,      /* J =  9 */
(PID.TID 0000.0001)                 1.469395959475426E+11,      /* J = 10 */
(PID.TID 0000.0001)                 1.558107891862220E+11,      /* J = 11 */
(PID.TID 0000.0001)                 1.639228879220326E+11,      /* J = 12 */
(PID.TID 0000.0001)                 1.712363708253573E+11,      /* J = 13 */
(PID.TID 0000.0001)                 1.777156073426415E+11,      /* J = 14 */
(PID.TID 0000.0001)                 1.833290312848623E+11,      /* J = 15 */
(PID.TID 0000.0001)                 1.880492946148330E+11,      /* J = 16 */
(PID.TID 0000.0001)                 1.918534006840893E+11,      /* J = 17 */
(PID.TID 0000.0001)                 1.947228162702492E+11,      /* J = 18 */
(PID.TID 0000.0001)                 1.966435618690094E+11,      /* J = 19 */
(PID.TID 0000.0001)     2 @  1.976062798008856E+11,             /* J = 20: 21 */
(PID.TID 0000.0001)                 1.966435618690094E+11,      /* J = 22 */
(PID.TID 0000.0001)                 1.947228162702492E+11,      /* J = 23 */
(PID.TID 0000.0001)                 1.918534006840893E+11,      /* J = 24 */
(PID.TID 0000.0001)                 1.880492946148330E+11,      /* J = 25 */
(PID.TID 0000.0001)                 1.833290312848623E+11,      /* J = 26 */
(PID.TID 0000.0001)                 1.777156073426415E+11,      /* J = 27 */
(PID.TID 0000.0001)                 1.712363708253573E+11,      /* J = 28 */
(PID.TID 0000.0001)                 1.639228879220326E+11,      /* J = 29 */
(PID.TID 0000.0001)                 1.558107891862220E+11,      /* J = 30 */
(PID.TID 0000.0001)                 1.469395959475426E+11,      /* J = 31 */
(PID.TID 0000.0001)                 1.373525277677229E+11,      /* J = 32 */
(PID.TID 0000.0001)                 1.270962918792468E+11,      /* J = 33 */
(PID.TID 0000.0001)                 1.162208556324093E+11,      /* J = 34 */
(PID.TID 0000.0001)                 1.047792030594103E+11,      /* J = 35 */
(PID.TID 0000.0001)                 9.282707674147523E+10,      /* J = 36 */
(PID.TID 0000.0001)                 8.042270623659998E+10,      /* J = 37 */
(PID.TID 0000.0001)                 6.762652439100235E+10,      /* J = 38 */
(PID.TID 0000.0001)                 5.450087291636665E+10,      /* J = 39 */
(PID.TID 0000.0001)                 4.110969866729047E+10       /* J = 40 */
(PID.TID 0000.0001)     ;
(PID.TID 0000.0001) rAs =  /* rAs(:,1,:,1) ( units: m^2 ) */
(PID.TID 0000.0001)    90 @  3.433488626798250E+10              /* I =  1: 90 */
(PID.TID 0000.0001)     ;
(PID.TID 0000.0001) rAs =  /* rAs(1,:,1,:) ( units: m^2 ) */
(PID.TID 0000.0001)                 3.433488626798250E+10,      /* J =  1 */
(PID.TID 0000.0001)                 4.783442523123625E+10,      /* J =  2 */
(PID.TID 0000.0001)                 6.110091968306414E+10,      /* J =  3 */
(PID.TID 0000.0001)                 7.406973659603818E+10,      /* J =  4 */
(PID.TID 0000.0001)                 8.667769319778079E+10,      /* J =  5 */
(PID.TID 0000.0001)                 9.886336479107463E+10,      /* J =  6 */
(PID.TID 0000.0001)                 1.105673840088173E+11,      /* J =  7 */
(PID.TID 0000.0001)                 1.217327300458638E+11,      /* J =  8 */
(PID.TID 0000.0001)                 1.323050064586578E+11,      /* J =  9 */
(PID.TID 0000.0001)                 1.422327061792377E+11,      /* J = 10 */
(PID.TID 0000.0001)                 1.514674624524945E+11,      /* J = 11 */
(PID.TID 0000.0001)                 1.599642844741385E+11,      /* J = 12 */
(PID.TID 0000.0001)                 1.676817765813788E+11,      /* J = 13 */
(PID.TID 0000.0001)                 1.745823399284268E+11,      /* J = 14 */
(PID.TID 0000.0001)                 1.806323556642996E+11,      /* J = 15 */
(PID.TID 0000.0001)                 1.858023487204767E+11,      /* J = 16 */
(PID.TID 0000.0001)                 1.900671314104743E+11,      /* J = 17 */
(PID.TID 0000.0001)                 1.934059261417216E+11,      /* J = 18 */
(PID.TID 0000.0001)                 1.958024666419019E+11,      /* J = 19 */
(PID.TID 0000.0001)                 1.972450772065981E+11,      /* J = 20 */
(PID.TID 0000.0001)                 1.977267295821495E+11,      /* J = 21 */
(PID.TID 0000.0001)                 1.972450772065981E+11,      /* J = 22 */
(PID.TID 0000.0001)                 1.958024666419019E+11,      /* J = 23 */
(PID.TID 0000.0001)                 1.934059261417216E+11,      /* J = 24 */
(PID.TID 0000.0001)                 1.900671314104743E+11,      /* J = 25 */
(PID.TID 0000.0001)                 1.858023487204767E+11,      /* J = 26 */
(PID.TID 0000.0001)                 1.806323556642996E+11,      /* J = 27 */
(PID.TID 0000.0001)                 1.745823399284268E+11,      /* J = 28 */
(PID.TID 0000.0001)                 1.676817765813788E+11,      /* J = 29 */
(PID.TID 0000.0001)                 1.599642844741385E+11,      /* J = 30 */
(PID.TID 0000.0001)                 1.514674624524945E+11,      /* J = 31 */
(PID.TID 0000.0001)                 1.422327061792377E+11,      /* J = 32 */
(PID.TID 0000.0001)                 1.323050064586578E+11,      /* J = 33 */
(PID.TID 0000.0001)                 1.217327300458638E+11,      /* J = 34 */
(PID.TID 0000.0001)                 1.105673840088173E+11,      /* J = 35 */
(PID.TID 0000.0001)                 9.886336479107463E+10,      /* J = 36 */
(PID.TID 0000.0001)                 8.667769319778079E+10,      /* J = 37 */
(PID.TID 0000.0001)                 7.406973659603818E+10,      /* J = 38 */
(PID.TID 0000.0001)                 6.110091968306414E+10,      /* J = 39 */
(PID.TID 0000.0001)                 4.783442523123625E+10       /* J = 40 */
(PID.TID 0000.0001)     ;
(PID.TID 0000.0001) globalArea = /* Integrated horizontal Area (m^2) */
(PID.TID 0000.0001)                 3.450614146649764E+14
(PID.TID 0000.0001)     ;
(PID.TID 0000.0001) // =======================================================
(PID.TID 0000.0001) // End of Model config. summary
(PID.TID 0000.0001) // =======================================================
(PID.TID 0000.0001) 
(PID.TID 0000.0001)  MDS_READ_FIELD: opening global file: lev_t.bin
(PID.TID 0000.0001) // =======================================================
(PID.TID 0000.0001) // Field Initial Temperature at iteration          1
(PID.TID 0000.0001) // CMIN =         -1.900000000000000E+00
(PID.TID 0000.0001) // CMAX =          2.973338890075684E+01
(PID.TID 0000.0001) // CINT =          1.171606996324327E+00
(PID.TID 0000.0001) // SYMBOLS (CMIN->CMAX): -abcdefghijklmnopqrstuvwxyz+
(PID.TID 0000.0001) //                  0.0: .
(PID.TID 0000.0001) // RANGE I (Lo:Hi:Step):(   1:  90:   1)
(PID.TID 0000.0001) // RANGE J (Lo:Hi:Step):(  40:   1:  -1)
(PID.TID 0000.0001) // RANGE K (Lo:Hi:Step):(   1:   1:   1)
(PID.TID 0000.0001) // =======================================================
(PID.TID 0000.0001) K =   1
(PID.TID 0000.0001)                I=10      I=20      I=30      I=40      I=50      I=60      I=70      I=80      I=90
(PID.TID 0000.0001) |--J--|123456789|123456789|123456789|123456789|123456789|123456789|123456789|123456789|123456789|
(PID.TID 0000.0001)     40 bccdd.baa----abdedd..................................................................bbbbb
(PID.TID 0000.0001)     39 ccdddddccbbbaa...ed.....................................................----........bbbbbb
(PID.TID 0000.0001)     38 fffgfedeedddc...........................................................-----......cbbbcde
(PID.TID 0000.0001)     37 ghh..................................................................bc...bbc...edeed.defg
(PID.TID 0000.0001)     36 hh.........................................ddcb....................dcccbabccdd.eefghhihhih
(PID.TID 0000.0001)     35 hh.................................aaab..dddeddd...ffggg...........ccc....ddeeeffghijjjjih
(PID.TID 0000.0001)     34 ...................................babb.deeeeeee.ffffgghh..................ccdffghijkkkj..
(PID.TID 0000.0001)     33 ....................................accdddeeeeefffffgghhiii.................bcfijkkllllkk.
(PID.TID 0000.0001)     32 ....................................bdddeffgffgghhhhhiiijjj................dccglmnmmmmlll.
(PID.TID 0000.0001)     31 ....................................fghiiiijjjjjjkkkkklllkk..............ikkjjmooooonnmm..
(PID.TID 0000.0001)     30 ...................................mmmnmmmmmmmmmmmmmnnnnnmm............moqrrrqrqqqpppooo..
(PID.TID 0000.0001)     29 .................................pqqqqqpppppppppoppoppppponm...........ssssssrrrrrqqqqpp..
(PID.TID 0000.0001)     28 ...............................prssssrrrsssrrrrrrrrrrrrrqqpoo.........uttssstssrssrrrqqq..
(PID.TID 0000.0001)     27 ..............vv..............stuttuuuuutuuuuuuuuuuttttssrrqqq...stuu.vvvuuuuutttttsss....
(PID.TID 0000.0001)     26 ..............vvv...........uuvvvvvwwwwwwwwvvvvvvvvvuuutttsssttv.uuvxxwwwwwwvvvvuuttsr....
(PID.TID 0000.0001)     25 ..............wwwx...xxx...vvvxxxxxyyxxxxxxxxxwwwwwvvvvvuuuuuvwwx...xxxxxxwwwwwwvvutsr....
(PID.TID 0000.0001)     24 ............wwwwxyy.xxyy...wxx.yyyyyyyyyyyxxxxxxxxwwwwwwwvvwwxxyywww.xxxxxxxxxxwwwvvur....
(PID.TID 0000.0001)     23 ............xxxyyyz.xyyy...xxx..yyyyzzyyyyyyyyxxxxxxxxxwwwwwxxxwwwwwx....vwxxxxwwwwwvu....
(PID.TID 0000.0001)     22 w...........xxyyyzyyyyyz...xx.yyzzzzzzzzzzzzzyyzyyyyyyxxwwxxxxwvvvwwxw......yyyyxxxxxxwxxw
(PID.TID 0000.0001)     21 xxx........xxxxyyzzzzzzz+.....zyzzzzzzz++zzzzyyyyyyyyxxwvvwwwwvvvvvvvu........yyyyyyyyyxxx
(PID.TID 0000.0001)     20 xww.......xyyyyxyyzzzzzz+......z.zzzzz+++zzzzzzyyyyyxxxxwvwxwvuuuuuuut.........yyyyxxxxwww
(PID.TID 0000.0001)     19 vvv.......yyyyxwwxyzyyzzzzz...zzz.....++++++z++z+zzzyyyyxxxxwwvvvvvvvu...........yyxxxwwww
(PID.TID 0000.0001)     18 uut.......zzyyywwxyzyyyyzzyzzzzzz...z+z++++zz+++++++zzzyyyyxxwwwvvvvvtt..........yyxxwvvwv
(PID.TID 0000.0001)     17 uus.......z.yyyyyyxyzzyyyyyyyzz.....yzzzzzzzzzzzzzzzzzzyyyyxxwwvuuvvuut.........yyyxxwttvu
(PID.TID 0000.0001)     16 utr......yy.zyyyyxxxxxxxwxxxxy.......yyyyyyyyyyyyyyyyyyyyyyyxxwvvvuuutts........xyyyxwvuuu
(PID.TID 0000.0001)     15 ttrr....xxx.xxxwxwwwwvwwvvvww.........xwxxxxxxxxxxxxxxxxxyyyxwwwvvuttssrr......wxxxxxwwvuu
(PID.TID 0000.0001)     14 ttsq....xyxwwxwvwwwvutuuuuuuu.........wwvwwwwvwvvwwwvwvvwwwwwwvvvuuutssrr.....vwwwwwwwvvvu
(PID.TID 0000.0001)     13 tttr....wwwvvvtttuuuutttssttt.........vvvuuuuuuutttttuuuuuvwwwuuuttttssrr....uvvvvvvvvvvut
(PID.TID 0000.0001)     12 sssssstttutssssrrrrrstrqqrrssqqrrq....uuttssssrrrrrrrrrrrstttssssrssrrqp.....uuuttssttssss
(PID.TID 0000.0001)     11 poprsssrqqqqqrqppooopqpoppppppppppp..sssrrr.rqpppqqqqppppqqqoppqqqqrqqpp....prsrqqqqqppppq
(PID.TID 0000.0001)     10 lllmoooonmnnmnnnnmmmmmmlmmlllmnnnnon.qqqppp.ppppppooooooooonmnnnonnooooo..nmoponnmnnnnnmll
(PID.TID 0000.0001)      9 ihhiiiihhhhhhiiihiiiiihhhiiiijjkkmnllnnnnn.mmmmnnnnmmmmnnmmlklllllklllll.mllmmllkjiijjihhi
(PID.TID 0000.0001)      8 eeeeeeeedefgggffeeffggffffggghiiiijjijklklkkkkkkkklllkkkkjjiiijkjjjjjjkj.kkjjiihggffffedde
(PID.TID 0000.0001)      7 cccccddeedddefeddddddddddefeefffffgggghiiiiiijjjihhgggghhhhhghhhhhhhiiiihiihhgfeddddddcccc
(PID.TID 0000.0001)      6 abbcccddcccccdddddccdddddddccddddddeeeeffggggghhgeddddddeeeeeeefggggghggggffeedccbbbbbbbba
(PID.TID 0000.0001)      5 bbbcccccccccccccccccccccbbccccdddddddcccddeeddeedcbbbbbbccccccdddeeeeeddddddccbbbbaaaaaaab
(PID.TID 0000.0001)      4 bbbbbbbaaabbbbbbbbbbbbaabbabbbbcbbbbbbbbbbbbbbbbbbbabbaaabbbbbbbbbbbbbbbbb..a--aaabbbaaabb
(PID.TID 0000.0001)      3 bbbbaaa-a-............................bbaaaaaaaaaaaaaaaaaaaaaaaaaaaaaaaab..aaaaaaaabbbaaaa
(PID.TID 0000.0001)      2 ..........................................baaaaaaaaaaaa-------aa..aaaa.....aaaaaaaaaaaa...
(PID.TID 0000.0001)      1 ..........................................................................................
(PID.TID 0000.0001) // =======================================================
(PID.TID 0000.0001) // END OF FIELD                                          =
(PID.TID 0000.0001) // =======================================================
(PID.TID 0000.0001) 
(PID.TID 0000.0001)  MDS_READ_FIELD: opening global file: lev_s.bin
(PID.TID 0000.0001) // =======================================================
(PID.TID 0000.0001) // Field Initial Salinity at iteration          1
(PID.TID 0000.0001) // CMIN =          2.975276947021484E+01
(PID.TID 0000.0001) // CMAX =          3.747562789916992E+01
(PID.TID 0000.0001) // CINT =          2.860317936650029E-01
(PID.TID 0000.0001) // SYMBOLS (CMIN->CMAX): -abcdefghijklmnopqrstuvwxyz+
(PID.TID 0000.0001) //                  0.0: .
(PID.TID 0000.0001) // RANGE I (Lo:Hi:Step):(   1:  90:   1)
(PID.TID 0000.0001) // RANGE J (Lo:Hi:Step):(  40:   1:  -1)
(PID.TID 0000.0001) // RANGE K (Lo:Hi:Step):(   1:   1:   1)
(PID.TID 0000.0001) // =======================================================
(PID.TID 0000.0001) K =   1
(PID.TID 0000.0001)                I=10      I=20      I=30      I=40      I=50      I=60      I=70      I=80      I=90
(PID.TID 0000.0001) |--J--|123456789|123456789|123456789|123456789|123456789|123456789|123456789|123456789|123456789|
(PID.TID 0000.0001)     40 qrrrr.oonnooopqtutt..................................................................mnnop
(PID.TID 0000.0001)     39 rssrrrrrrrqqpn...ut.....................................................mmmm........opqqqr
(PID.TID 0000.0001)     38 ssrrqqqqrrqpo...........................................................lkkll......onoqrrs
(PID.TID 0000.0001)     37 ssr..................................................................hg...lln...qppqr.rrrs
(PID.TID 0000.0001)     36 rr.........................................lkji....................feeegikmoop.pqrssssssss
(PID.TID 0000.0001)     35 rr.................................kkkk..lllllki...jijjj...........aa-....opqrrrrrrrssttss
(PID.TID 0000.0001)     34 ...................................jlll.kklllllk.ijkkkjih..................hlpqrqrrsstts..
(PID.TID 0000.0001)     33 ....................................iklkkkkkkkkkjkkjjjjjjii.................jmprrsstttttt.
(PID.TID 0000.0001)     32 ....................................iklllkllllllllkkkkkkkji................gilpstuuttuuut.
(PID.TID 0000.0001)     31 ....................................lmnonnnnoooonnmmmmllkjj..............loopqtvvvuuuuuu..
(PID.TID 0000.0001)     30 ...................................pppppppqqqqpppoooonnmlkk............ptvxwwvvwvvvvvvvu..
(PID.TID 0000.0001)     29 .................................pqqrqqqqqqrrrqqppqqqpponmll...........vxxxxxxwwwwwxwwxw..
(PID.TID 0000.0001)     28 ...............................prrrrrqqrrrrrsrrsrssssssrqonmm.........wxxxxxxxyyyyyyyyxx..
(PID.TID 0000.0001)     27 ..............xx..............prrrrrrrrrssssssstttssssssrqpoop...uwww.wwxxxyyy++zzzzyy....
(PID.TID 0000.0001)     26 ..............wxx...........ppqrrrrrrsssrrstsstttssrrrrrrrqppqqp.wwwvvwwwwwxyy+++zzyxw....
(PID.TID 0000.0001)     25 ..............wxxv...kkk...ooopqrrrrrssrrrrrrrssssqqpppppppppppoo...vvutuuvvwxyyyxxvvu....
(PID.TID 0000.0001)     24 ............uvvwwur.lmlk...nmm.pqqqqrrrrrqqqqrrqqrpppppooooonmmmnooo.uuuuuuttuvvvuvuut....
(PID.TID 0000.0001)     23 ............vvuvtqp.lmml...mln..ppppqpqppppppqpppppppppqppponnnnnoopm....xvuuuvvvvuuut....
(PID.TID 0000.0001)     22 r...........vuttsqqpnppn...mm.oppqqrrqqqqqqppppqqrrrqqqrrppppoopooomjj......uuvvvvvuttssrr
(PID.TID 0000.0001)     21 qmm........ttsssssssrsqon.....opqqqqqqqrrrrqqqssssssrrrrrrrrpqqqppomll........tvvvvuttssrr
(PID.TID 0000.0001)     20 sqq.......sttssrrsrrrrpol......p.qrqpqrrrrrrrstttttsssrrsssrqrrrrqqqpo.........wwwvvvuuutt
(PID.TID 0000.0001)     19 tsr.......ssssrrrrpppppnmmm...oqq.....qrqqsrrstttuuuttssttssrrssrrrrqq...........wwwvuvvvv
(PID.TID 0000.0001)     18 wut.......ssrrrrrqppppppppoooorrr...poqqqprrrttttuuutuuuuuutttttttutsss..........yyxwwxwxx
(PID.TID 0000.0001)     17 wwu.......s.rrrrrrqppppqqqqqqqr.....rrsrqrsssuusrtuuuvvvwwvvvuuuuutttss.........xyzyyyyxxx
(PID.TID 0000.0001)     16 vvt......ss.qrrssrqrqpqrrrrrrr.......ssrrstsstusrsuuuvwwwwxxwwvvvuttttsr........yz+zzzxwww
(PID.TID 0000.0001)     15 utss....stt.rrssstttsrrsrstsr.........ssstttssttsuuttuvvvvwxwwwwwuttsssrr......xyyyyxyyxwv
(PID.TID 0000.0001)     14 utts....sstrrssstuuuuuuuuuutt.........stttuutttttttuttttttuvvvvvvutsrqrrr.....vxxwwwwxwvwv
(PID.TID 0000.0001)     13 uuut....ttttttttuuuuuvtuuuuuu.........ttttuutttttttuutsssstttttstsqrqqppp....uwwwvuvvvutvv
(PID.TID 0000.0001)     12 ttttttttttttttttttttttssuuuuutuuut....tttttttttttsssssrrrrrrrqqqqqppppoo.....rvvuuttttttuu
(PID.TID 0000.0001)     11 rqsttttttttuuttttsssssrrstttttttsss..ttttts.tsssrrrrqqqqqppppoonnooooooo....oruttttsssrqrs
(PID.TID 0000.0001)     10 pppqrssrqqrqpqrssrrqqqqqqrrrrrrrrrrs.sssssr.rssrrqqpppppppooooonnnoooonn..moqrrrqqqqqqqqqq
(PID.TID 0000.0001)      9 oonooooooooonnnooooooooooppppppqqqqqrrrqrq.pppqqqqqppppppppppoooooooooll.lmoqqqqppooooopoo
(PID.TID 0000.0001)      8 nnnoonooooooonnnnnnnoooonoonoooppopqqqqqqqppopppqqqpppppppppppppppooopon.lnopppoooonnnnooo
(PID.TID 0000.0001)      7 ooooooooooopponnnooooooonnnnnonnooooooooopppppppoooooooooopppppppppoopqnnmnoooonnnonnnnnno
(PID.TID 0000.0001)      6 oooonnoonnnnooooooooooooonnnnnnnnnnnnnnnnoooopppooooooooooooooppppppppppoooooooonnnnnmnnnn
(PID.TID 0000.0001)      5 oooonnnnnnnnnnnnnnnnnoooooonnnnnnonnnnnnnnnoooooooooooonnnnnnooooooopoooonoooonnnnnnnooooo
(PID.TID 0000.0001)      4 oooonnnooonnnnnnnnnnnnnnoooooonnnooooonnnooooooooppponnnnmmmnnnnmnnoonnnnn..nnnooooooooooo
(PID.TID 0000.0001)      3 ooonnnnnnn............................nnoooooonnooooonnnnnnnoonnnnnnnnmmm..ooopooooooooooo
(PID.TID 0000.0001)      2 ..........................................pppooooonnnnnnoooppppo..nnnn.....qqqpppoooooo...
(PID.TID 0000.0001)      1 ..........................................................................................
(PID.TID 0000.0001) // =======================================================
(PID.TID 0000.0001) // END OF FIELD                                          =
(PID.TID 0000.0001) // =======================================================
(PID.TID 0000.0001) 
(PID.TID 0000.0001) Start initial hydrostatic pressure computation
(PID.TID 0000.0001) Pressure is predetermined for buoyancyRelation OCEANIC
(PID.TID 0000.0001) 
(PID.TID 0000.0001)  write diagnostics summary to file ioUnit:      6
Iter.Nb:         0 ; Time(s):  0.0000000000000E+00
------------------------------------------------------------------------
2D/3D diagnostics: Number of lists:     8
------------------------------------------------------------------------
listId=   1 ; file name: EXFtaux
 nFlds, nActive,       freq     &   phase        , nLev                 
   1  |   1  |   -864000.000000    432000.000000 |   1
 levels:   1
 diag#| name   | ipt  | iMate| kLev| count | mate.C|                    
  176 |EXFtaux |    1 |    0 |   1 |     0 |
------------------------------------------------------------------------
listId=   2 ; file name: EXFtauy
 nFlds, nActive,       freq     &   phase        , nLev                 
   1  |   1  |   -864000.000000    432000.000000 |   1
 levels:   1
 diag#| name   | ipt  | iMate| kLev| count | mate.C|                    
  177 |EXFtauy |    2 |    0 |   1 |     0 |
------------------------------------------------------------------------
listId=   3 ; file name: EXFqnet
 nFlds, nActive,       freq     &   phase        , nLev                 
   1  |   1  |   -864000.000000    432000.000000 |   1
 levels:   1
 diag#| name   | ipt  | iMate| kLev| count | mate.C|                    
  175 |EXFqnet |    3 |    0 |   1 |     0 |
------------------------------------------------------------------------
listId=   4 ; file name: EXFempmr
 nFlds, nActive,       freq     &   phase        , nLev                 
   1  |   1  |   -864000.000000    432000.000000 |   1
 levels:   1
 diag#| name   | ipt  | iMate| kLev| count | mate.C|                    
  186 |EXFempmr|    4 |    0 |   1 |     0 |
------------------------------------------------------------------------
listId=   5 ; file name: SSS
 nFlds, nActive,       freq     &   phase        , nLev                 
   1  |   1  |   -864000.000000    432000.000000 |   1
 levels:   1
 diag#| name   | ipt  | iMate| kLev| count | mate.C|                    
   27 |SALT    |    5 |    0 |  15 |     0 |
------------------------------------------------------------------------
listId=   6 ; file name: SST
 nFlds, nActive,       freq     &   phase        , nLev                 
   1  |   1  |   -864000.000000    432000.000000 |   1
 levels:   1
 diag#| name   | ipt  | iMate| kLev| count | mate.C|                    
   26 |THETA   |   20 |    0 |  15 |     0 |
------------------------------------------------------------------------
listId=   7 ; file name: UVEL_k2
 nFlds, nActive,       freq     &   phase        , nLev                 
   1  |   1  |   -864000.000000    432000.000000 |   1
 levels:   2
 diag#| name   | ipt  | iMate| kLev| count | mate.C|                    
   30 |UVEL    |   35 |   50 |  15 |     0 |     0 |
------------------------------------------------------------------------
listId=   8 ; file name: VVEL_k2
 nFlds, nActive,       freq     &   phase        , nLev                 
   1  |   1  |   -864000.000000    432000.000000 |   1
 levels:   2
 diag#| name   | ipt  | iMate| kLev| count | mate.C|                    
   31 |VVEL    |   50 |   35 |  15 |     0 |     0 |
------------------------------------------------------------------------
Global & Regional Statistics diagnostics: Number of lists:     0
------------------------------------------------------------------------
(PID.TID 0000.0001) // =======================================================
(PID.TID 0000.0001) // Model current state
(PID.TID 0000.0001) // =======================================================
(PID.TID 0000.0001) 
(PID.TID 0000.0001) // =======================================================
(PID.TID 0000.0001) // Begin MONITOR dynamic field statistics
(PID.TID 0000.0001) // =======================================================
(PID.TID 0000.0001) %MON time_tsnumber                =                     0
(PID.TID 0000.0001) %MON time_secondsf                =   0.0000000000000E+00
(PID.TID 0000.0001) %MON dynstat_eta_max              =   0.0000000000000E+00
(PID.TID 0000.0001) %MON dynstat_eta_min              =   0.0000000000000E+00
(PID.TID 0000.0001) %MON dynstat_eta_mean             =   0.0000000000000E+00
(PID.TID 0000.0001) %MON dynstat_eta_sd               =   0.0000000000000E+00
(PID.TID 0000.0001) %MON dynstat_eta_del2             =   0.0000000000000E+00
(PID.TID 0000.0001) %MON dynstat_uvel_max             =   0.0000000000000E+00
(PID.TID 0000.0001) %MON dynstat_uvel_min             =   0.0000000000000E+00
(PID.TID 0000.0001) %MON dynstat_uvel_mean            =   0.0000000000000E+00
(PID.TID 0000.0001) %MON dynstat_uvel_sd              =   0.0000000000000E+00
(PID.TID 0000.0001) %MON dynstat_uvel_del2            =   0.0000000000000E+00
(PID.TID 0000.0001) %MON dynstat_vvel_max             =   0.0000000000000E+00
(PID.TID 0000.0001) %MON dynstat_vvel_min             =   0.0000000000000E+00
(PID.TID 0000.0001) %MON dynstat_vvel_mean            =   0.0000000000000E+00
(PID.TID 0000.0001) %MON dynstat_vvel_sd              =   0.0000000000000E+00
(PID.TID 0000.0001) %MON dynstat_vvel_del2            =   0.0000000000000E+00
(PID.TID 0000.0001) %MON dynstat_wvel_max             =   0.0000000000000E+00
(PID.TID 0000.0001) %MON dynstat_wvel_min             =   0.0000000000000E+00
(PID.TID 0000.0001) %MON dynstat_wvel_mean            =   0.0000000000000E+00
(PID.TID 0000.0001) %MON dynstat_wvel_sd              =   0.0000000000000E+00
(PID.TID 0000.0001) %MON dynstat_wvel_del2            =   0.0000000000000E+00
(PID.TID 0000.0001) %MON dynstat_theta_max            =   2.9733388900757E+01
(PID.TID 0000.0001) %MON dynstat_theta_min            =  -1.9000000000000E+00
(PID.TID 0000.0001) %MON dynstat_theta_mean           =   3.6197074666131E+00
(PID.TID 0000.0001) %MON dynstat_theta_sd             =   4.4174614518570E+00
(PID.TID 0000.0001) %MON dynstat_theta_del2           =   1.5097301766230E-01
(PID.TID 0000.0001) %MON dynstat_salt_max             =   3.7475627899170E+01
(PID.TID 0000.0001) %MON dynstat_salt_min             =   2.9752769470215E+01
(PID.TID 0000.0001) %MON dynstat_salt_mean            =   3.4718006161477E+01
(PID.TID 0000.0001) %MON dynstat_salt_sd              =   2.9628819587991E-01
(PID.TID 0000.0001) %MON dynstat_salt_del2            =   2.6251884861846E-02
(PID.TID 0000.0001) %MON extforcing_qnet_max          =   0.0000000000000E+00
(PID.TID 0000.0001) %MON extforcing_qnet_min          =   0.0000000000000E+00
(PID.TID 0000.0001) %MON extforcing_qnet_mean         =   0.0000000000000E+00
(PID.TID 0000.0001) %MON extforcing_qnet_sd           =   0.0000000000000E+00
(PID.TID 0000.0001) %MON extforcing_qnet_del2         =   0.0000000000000E+00
(PID.TID 0000.0001) %MON extforcing_qsw_max           =   0.0000000000000E+00
(PID.TID 0000.0001) %MON extforcing_qsw_min           =   0.0000000000000E+00
(PID.TID 0000.0001) %MON extforcing_qsw_mean          =   0.0000000000000E+00
(PID.TID 0000.0001) %MON extforcing_qsw_sd            =   0.0000000000000E+00
(PID.TID 0000.0001) %MON extforcing_qsw_del2          =   0.0000000000000E+00
(PID.TID 0000.0001) %MON extforcing_empmr_max         =   0.0000000000000E+00
(PID.TID 0000.0001) %MON extforcing_empmr_min         =   0.0000000000000E+00
(PID.TID 0000.0001) %MON extforcing_empmr_mean        =   0.0000000000000E+00
(PID.TID 0000.0001) %MON extforcing_empmr_sd          =   0.0000000000000E+00
(PID.TID 0000.0001) %MON extforcing_empmr_del2        =   0.0000000000000E+00
(PID.TID 0000.0001) %MON extforcing_fu_max            =   0.0000000000000E+00
(PID.TID 0000.0001) %MON extforcing_fu_min            =   0.0000000000000E+00
(PID.TID 0000.0001) %MON extforcing_fu_mean           =   0.0000000000000E+00
(PID.TID 0000.0001) %MON extforcing_fu_sd             =   0.0000000000000E+00
(PID.TID 0000.0001) %MON extforcing_fu_del2           =   0.0000000000000E+00
(PID.TID 0000.0001) %MON extforcing_fv_max            =   0.0000000000000E+00
(PID.TID 0000.0001) %MON extforcing_fv_min            =   0.0000000000000E+00
(PID.TID 0000.0001) %MON extforcing_fv_mean           =   0.0000000000000E+00
(PID.TID 0000.0001) %MON extforcing_fv_sd             =   0.0000000000000E+00
(PID.TID 0000.0001) %MON extforcing_fv_del2           =   0.0000000000000E+00
(PID.TID 0000.0001) %MON advcfl_uvel_max              =   0.0000000000000E+00
(PID.TID 0000.0001) %MON advcfl_vvel_max              =   0.0000000000000E+00
(PID.TID 0000.0001) %MON advcfl_wvel_max              =   0.0000000000000E+00
(PID.TID 0000.0001) %MON advcfl_W_hf_max              =   0.0000000000000E+00
(PID.TID 0000.0001) %MON pe_b_mean                    =   0.0000000000000E+00
(PID.TID 0000.0001) %MON ke_max                       =   0.0000000000000E+00
(PID.TID 0000.0001) %MON ke_mean                      =   0.0000000000000E+00
(PID.TID 0000.0001) %MON ke_vol                       =   1.3226782436723E+18
(PID.TID 0000.0001) %MON vort_r_min                   =   0.0000000000000E+00
(PID.TID 0000.0001) %MON vort_r_max                   =   0.0000000000000E+00
(PID.TID 0000.0001) %MON vort_a_mean                  =  -2.5205769728598E-05
(PID.TID 0000.0001) %MON vort_a_sd                    =   7.3403301351719E-05
(PID.TID 0000.0001) %MON vort_p_mean                  =  -3.1758669979760E-05
(PID.TID 0000.0001) %MON vort_p_sd                    =   1.3126616755304E-04
(PID.TID 0000.0001) %MON surfExpan_theta_mean         =   0.0000000000000E+00
(PID.TID 0000.0001) %MON surfExpan_salt_mean          =   0.0000000000000E+00
(PID.TID 0000.0001) // =======================================================
(PID.TID 0000.0001) // End MONITOR dynamic field statistics
(PID.TID 0000.0001) // =======================================================
(PID.TID 0000.0001)  exf_GetFFieldsRec:
(PID.TID 0000.0001)  exf_GetFFieldsRec: first, changed, fac:   T   F   0.10000000E+01
(PID.TID 0000.0001)  exf_GetFFieldsRec: myiter, count0, count1:      0      1      2
(PID.TID 0000.0001)  exf_GetFFieldsRec:
(PID.TID 0000.0001)  exf_GetFFieldsRec:
(PID.TID 0000.0001)  exf_GetFFieldsRec: first, changed, fac:   T   F   0.10000000E+01
(PID.TID 0000.0001)  exf_GetFFieldsRec: myiter, count0, count1:      0      1      2
(PID.TID 0000.0001)  exf_GetFFieldsRec:
(PID.TID 0000.0001)  exf_GetFFieldsRec:
(PID.TID 0000.0001)  exf_GetFFieldsRec: first, changed, fac:   T   F   0.10000000E+01
(PID.TID 0000.0001)  exf_GetFFieldsRec: myiter, count0, count1:      0      1      2
(PID.TID 0000.0001)  exf_GetFFieldsRec:
(PID.TID 0000.0001)  exf_GetFFieldsRec:
(PID.TID 0000.0001)  exf_GetFFieldsRec: first, changed, fac:   T   F   0.10000000E+01
(PID.TID 0000.0001)  exf_GetFFieldsRec: myiter, count0, count1:      0      1      2
(PID.TID 0000.0001)  exf_GetFFieldsRec:
(PID.TID 0000.0001)  exf_GetFFieldsRec:
(PID.TID 0000.0001)  exf_GetFFieldsRec: first, changed, fac:   T   F   0.10000000E+01
(PID.TID 0000.0001)  exf_GetFFieldsRec: myiter, count0, count1:      0      1      2
(PID.TID 0000.0001)  exf_GetFFieldsRec:
(PID.TID 0000.0001) // =======================================================
(PID.TID 0000.0001) // Begin MONITOR EXF statistics
(PID.TID 0000.0001) // =======================================================
(PID.TID 0000.0001) %MON exf_tsnumber                 =                     0
(PID.TID 0000.0001) %MON exf_time_sec                 =   0.0000000000000E+00
(PID.TID 0000.0001) %MON exf_ustress_max              =   2.7713976800442E-01
(PID.TID 0000.0001) %MON exf_ustress_min              =  -1.7151554767042E-01
(PID.TID 0000.0001) %MON exf_ustress_mean             =   1.5423705743354E-02
(PID.TID 0000.0001) %MON exf_ustress_sd               =   8.8730377072575E-02
(PID.TID 0000.0001) %MON exf_ustress_del2             =   8.9400535262028E-03
(PID.TID 0000.0001) %MON exf_vstress_max              =   2.2735563758761E-01
(PID.TID 0000.0001) %MON exf_vstress_min              =  -1.7918115388602E-01
(PID.TID 0000.0001) %MON exf_vstress_mean             =  -5.2082584346665E-03
(PID.TID 0000.0001) %MON exf_vstress_sd               =   4.7636922843405E-02
(PID.TID 0000.0001) %MON exf_vstress_del2             =   5.3648683539114E-03
(PID.TID 0000.0001) %MON exf_hflux_max                =   4.4161361694336E+02
(PID.TID 0000.0001) %MON exf_hflux_min                =  -1.8132531738281E+02
(PID.TID 0000.0001) %MON exf_hflux_mean               =  -1.6512526001044E+01
(PID.TID 0000.0001) %MON exf_hflux_sd                 =   1.0987288293460E+02
(PID.TID 0000.0001) %MON exf_hflux_del2               =   9.6689454498868E+00
(PID.TID 0000.0001) %MON exf_sflux_max                =   0.0000000000000E+00
(PID.TID 0000.0001) %MON exf_sflux_min                =   0.0000000000000E+00
(PID.TID 0000.0001) %MON exf_sflux_mean               =   0.0000000000000E+00
(PID.TID 0000.0001) %MON exf_sflux_sd                 =   0.0000000000000E+00
(PID.TID 0000.0001) %MON exf_sflux_del2               =   0.0000000000000E+00
(PID.TID 0000.0001) %MON exf_wspeed_max               =   0.0000000000000E+00
(PID.TID 0000.0001) %MON exf_wspeed_min               =   0.0000000000000E+00
(PID.TID 0000.0001) %MON exf_wspeed_mean              =   0.0000000000000E+00
(PID.TID 0000.0001) %MON exf_wspeed_sd                =   0.0000000000000E+00
(PID.TID 0000.0001) %MON exf_wspeed_del2              =   0.0000000000000E+00
(PID.TID 0000.0001) %MON exf_swflux_max               =   0.0000000000000E+00
(PID.TID 0000.0001) %MON exf_swflux_min               =   0.0000000000000E+00
(PID.TID 0000.0001) %MON exf_swflux_mean              =   0.0000000000000E+00
(PID.TID 0000.0001) %MON exf_swflux_sd                =   0.0000000000000E+00
(PID.TID 0000.0001) %MON exf_swflux_del2              =   0.0000000000000E+00
(PID.TID 0000.0001) %MON exf_apressure_max            =   0.0000000000000E+00
(PID.TID 0000.0001) %MON exf_apressure_min            =   0.0000000000000E+00
(PID.TID 0000.0001) %MON exf_apressure_mean           =   0.0000000000000E+00
(PID.TID 0000.0001) %MON exf_apressure_sd             =   0.0000000000000E+00
(PID.TID 0000.0001) %MON exf_apressure_del2           =   0.0000000000000E+00
(PID.TID 0000.0001) %MON exf_climsst_max              =   2.9733388900757E+01
(PID.TID 0000.0001) %MON exf_climsst_min              =  -1.9000000000000E+00
(PID.TID 0000.0001) %MON exf_climsst_mean             =   1.8484768169451E+01
(PID.TID 0000.0001) %MON exf_climsst_sd               =   9.1795873467431E+00
(PID.TID 0000.0001) %MON exf_climsst_del2             =   2.8475713994204E-01
(PID.TID 0000.0001) %MON exf_climsss_max              =   3.7475627899170E+01
(PID.TID 0000.0001) %MON exf_climsss_min              =   2.9752769470215E+01
(PID.TID 0000.0001) %MON exf_climsss_mean             =   3.4849925275207E+01
(PID.TID 0000.0001) %MON exf_climsss_sd               =   9.6344930396289E-01
(PID.TID 0000.0001) %MON exf_climsss_del2             =   8.4229940575091E-02
(PID.TID 0000.0001) // =======================================================
(PID.TID 0000.0001) // End MONITOR EXF statistics
(PID.TID 0000.0001) // =======================================================
 cg2d: Sum(rhs),rhsMax =  -6.05071548420710E-15  2.53366653626682E+00
(PID.TID 0000.0001)                    cg2d_init_res =    6.22512317218893E+00
(PID.TID 0000.0001)                       cg2d_iters =    26
(PID.TID 0000.0001)                         cg2d_res =    5.02316129322918E-14
(PID.TID 0000.0001) // =======================================================
(PID.TID 0000.0001) // Begin MONITOR dynamic field statistics
(PID.TID 0000.0001) // =======================================================
(PID.TID 0000.0001) %MON time_tsnumber                =                     1
(PID.TID 0000.0001) %MON time_secondsf                =   4.3200000000000E+04
(PID.TID 0000.0001) %MON dynstat_eta_max              =   1.7857051944140E-01
(PID.TID 0000.0001) %MON dynstat_eta_min              =  -1.1522414215627E-01
(PID.TID 0000.0001) %MON dynstat_eta_mean             =  -1.0906544674168E-17
(PID.TID 0000.0001) %MON dynstat_eta_sd               =   2.6330138518185E-02
(PID.TID 0000.0001) %MON dynstat_eta_del2             =   1.1668900280600E-02
(PID.TID 0000.0001) %MON dynstat_uvel_max             =   8.0657545296474E-03
(PID.TID 0000.0001) %MON dynstat_uvel_min             =  -8.9104852140006E-03
(PID.TID 0000.0001) %MON dynstat_uvel_mean            =  -3.6101983200913E-04
(PID.TID 0000.0001) %MON dynstat_uvel_sd              =   1.2327499193330E-03
(PID.TID 0000.0001) %MON dynstat_uvel_del2            =   4.2134252864666E-04
(PID.TID 0000.0001) %MON dynstat_vvel_max             =   1.8795021508296E-02
(PID.TID 0000.0001) %MON dynstat_vvel_min             =  -1.1293245238746E-02
(PID.TID 0000.0001) %MON dynstat_vvel_mean            =   9.2398518154045E-04
(PID.TID 0000.0001) %MON dynstat_vvel_sd              =   3.4433557361635E-03
(PID.TID 0000.0001) %MON dynstat_vvel_del2            =   5.2629881361381E-04
(PID.TID 0000.0001) %MON dynstat_wvel_max             =   1.5979220386829E-04
(PID.TID 0000.0001) %MON dynstat_wvel_min             =  -1.0318498061027E-04
(PID.TID 0000.0001) %MON dynstat_wvel_mean            =  -2.2900223806659E-22
(PID.TID 0000.0001) %MON dynstat_wvel_sd              =   1.6851626930144E-05
(PID.TID 0000.0001) %MON dynstat_wvel_del2            =   8.8304488945667E-06
(PID.TID 0000.0001) %MON dynstat_theta_max            =   2.9741474816594E+01
(PID.TID 0000.0001) %MON dynstat_theta_min            =  -1.9041515505492E+00
(PID.TID 0000.0001) %MON dynstat_theta_mean           =   3.6197524851151E+00
(PID.TID 0000.0001) %MON dynstat_theta_sd             =   4.4172107032650E+00
(PID.TID 0000.0001) %MON dynstat_theta_del2           =   1.5244439219540E-01
(PID.TID 0000.0001) %MON dynstat_salt_max             =   3.7470580662447E+01
(PID.TID 0000.0001) %MON dynstat_salt_min             =   2.9754445925786E+01
(PID.TID 0000.0001) %MON dynstat_salt_mean            =   3.4718006161477E+01
(PID.TID 0000.0001) %MON dynstat_salt_sd              =   2.9615385384372E-01
(PID.TID 0000.0001) %MON dynstat_salt_del2            =   2.6480780025892E-02
(PID.TID 0000.0001) %MON extforcing_qnet_max          =   4.4161361694336E+02
(PID.TID 0000.0001) %MON extforcing_qnet_min          =  -1.8132531738281E+02
(PID.TID 0000.0001) %MON extforcing_qnet_mean         =  -1.6512526001044E+01
(PID.TID 0000.0001) %MON extforcing_qnet_sd           =   1.0987288293460E+02
(PID.TID 0000.0001) %MON extforcing_qnet_del2         =   9.6689454498868E+00
(PID.TID 0000.0001) %MON extforcing_qsw_max           =   0.0000000000000E+00
(PID.TID 0000.0001) %MON extforcing_qsw_min           =   0.0000000000000E+00
(PID.TID 0000.0001) %MON extforcing_qsw_mean          =   0.0000000000000E+00
(PID.TID 0000.0001) %MON extforcing_qsw_sd            =   0.0000000000000E+00
(PID.TID 0000.0001) %MON extforcing_qsw_del2          =   0.0000000000000E+00
(PID.TID 0000.0001) %MON extforcing_empmr_max         =   0.0000000000000E+00
(PID.TID 0000.0001) %MON extforcing_empmr_min         =   0.0000000000000E+00
(PID.TID 0000.0001) %MON extforcing_empmr_mean        =   0.0000000000000E+00
(PID.TID 0000.0001) %MON extforcing_empmr_sd          =   0.0000000000000E+00
(PID.TID 0000.0001) %MON extforcing_empmr_del2        =   0.0000000000000E+00
(PID.TID 0000.0001) %MON extforcing_fu_max            =   2.7697062399238E-01
(PID.TID 0000.0001) %MON extforcing_fu_min            =  -1.6950610047206E-01
(PID.TID 0000.0001) %MON extforcing_fu_mean           =   1.6876452469083E-02
(PID.TID 0000.0001) %MON extforcing_fu_sd             =   8.7532845861556E-02
(PID.TID 0000.0001) %MON extforcing_fu_del2           =   7.7476665130261E-03
(PID.TID 0000.0001) %MON extforcing_fv_max            =   2.2593373339623E-01
(PID.TID 0000.0001) %MON extforcing_fv_min            =  -1.4993640757166E-01
(PID.TID 0000.0001) %MON extforcing_fv_mean           =  -9.7446563375133E-03
(PID.TID 0000.0001) %MON extforcing_fv_sd             =   3.8247267253073E-02
(PID.TID 0000.0001) %MON extforcing_fv_del2           =   3.6102119465155E-03
(PID.TID 0000.0001) %MON advcfl_uvel_max              =   2.6556238444471E-03
(PID.TID 0000.0001) %MON advcfl_vvel_max              =   1.8257856215786E-03
(PID.TID 0000.0001) %MON advcfl_wvel_max              =   2.5714154799561E-01
(PID.TID 0000.0001) %MON advcfl_W_hf_max              =   2.6084552821996E-01
(PID.TID 0000.0001) %MON pe_b_mean                    =   8.8713045326023E-07
(PID.TID 0000.0001) %MON ke_max                       =   1.2389728787949E-04
(PID.TID 0000.0001) %MON ke_mean                      =   6.4559005209578E-06
(PID.TID 0000.0001) %MON ke_vol                       =   1.3226782436723E+18
(PID.TID 0000.0001) %MON vort_r_min                   =  -5.9901738720943E-08
(PID.TID 0000.0001) %MON vort_r_max                   =   6.7788263835610E-08
(PID.TID 0000.0001) %MON vort_a_mean                  =  -2.5205769406509E-05
(PID.TID 0000.0001) %MON vort_a_sd                    =   7.3403223029806E-05
(PID.TID 0000.0001) %MON vort_p_mean                  =  -3.1758669573937E-05
(PID.TID 0000.0001) %MON vort_p_sd                    =   1.3126608117497E-04
(PID.TID 0000.0001) %MON surfExpan_theta_mean         =   4.7010549050322E-05
(PID.TID 0000.0001) %MON surfExpan_salt_mean          =   3.5328855554162E-06
(PID.TID 0000.0001) // =======================================================
(PID.TID 0000.0001) // End MONITOR dynamic field statistics
(PID.TID 0000.0001) // =======================================================
(PID.TID 0000.0001)  exf_GetFFieldsRec:
(PID.TID 0000.0001)  exf_GetFFieldsRec: first, changed, fac:   F   F   0.98333333E+00
(PID.TID 0000.0001)  exf_GetFFieldsRec: myiter, count0, count1:      1      1      2
(PID.TID 0000.0001)  exf_GetFFieldsRec:
(PID.TID 0000.0001)  exf_GetFFieldsRec:
(PID.TID 0000.0001)  exf_GetFFieldsRec: first, changed, fac:   F   F   0.98333333E+00
(PID.TID 0000.0001)  exf_GetFFieldsRec: myiter, count0, count1:      1      1      2
(PID.TID 0000.0001)  exf_GetFFieldsRec:
(PID.TID 0000.0001)  exf_GetFFieldsRec:
(PID.TID 0000.0001)  exf_GetFFieldsRec: first, changed, fac:   F   F   0.98333333E+00
(PID.TID 0000.0001)  exf_GetFFieldsRec: myiter, count0, count1:      1      1      2
(PID.TID 0000.0001)  exf_GetFFieldsRec:
(PID.TID 0000.0001)  exf_GetFFieldsRec:
(PID.TID 0000.0001)  exf_GetFFieldsRec: first, changed, fac:   F   F   0.98333333E+00
(PID.TID 0000.0001)  exf_GetFFieldsRec: myiter, count0, count1:      1      1      2
(PID.TID 0000.0001)  exf_GetFFieldsRec:
(PID.TID 0000.0001)  exf_GetFFieldsRec:
(PID.TID 0000.0001)  exf_GetFFieldsRec: first, changed, fac:   F   F   0.98333333E+00
(PID.TID 0000.0001)  exf_GetFFieldsRec: myiter, count0, count1:      1      1      2
(PID.TID 0000.0001)  exf_GetFFieldsRec:
(PID.TID 0000.0001) // =======================================================
(PID.TID 0000.0001) // Begin MONITOR EXF statistics
(PID.TID 0000.0001) // =======================================================
(PID.TID 0000.0001) %MON exf_tsnumber                 =                     1
(PID.TID 0000.0001) %MON exf_time_sec                 =   4.3200000000000E+04
(PID.TID 0000.0001) %MON exf_ustress_max              =   2.7717584716156E-01
(PID.TID 0000.0001) %MON exf_ustress_min              =  -1.7060329117812E-01
(PID.TID 0000.0001) %MON exf_ustress_mean             =   1.5450263104145E-02
(PID.TID 0000.0001) %MON exf_ustress_sd               =   8.8636267608103E-02
(PID.TID 0000.0001) %MON exf_ustress_del2             =   8.9130853209267E-03
(PID.TID 0000.0001) %MON exf_vstress_max              =   2.2601133870582E-01
(PID.TID 0000.0001) %MON exf_vstress_min              =  -1.7852154664385E-01
(PID.TID 0000.0001) %MON exf_vstress_mean             =  -5.2387062360225E-03
(PID.TID 0000.0001) %MON exf_vstress_sd               =   4.7473529583692E-02
(PID.TID 0000.0001) %MON exf_vstress_del2             =   5.3385582260930E-03
(PID.TID 0000.0001) %MON exf_hflux_max                =   4.3995407358805E+02
(PID.TID 0000.0001) %MON exf_hflux_min                =  -1.8079741999308E+02
(PID.TID 0000.0001) %MON exf_hflux_mean               =  -1.6470071417342E+01
(PID.TID 0000.0001) %MON exf_hflux_sd                 =   1.0933313020962E+02
(PID.TID 0000.0001) %MON exf_hflux_del2               =   9.6427542397483E+00
(PID.TID 0000.0001) %MON exf_sflux_max                =   0.0000000000000E+00
(PID.TID 0000.0001) %MON exf_sflux_min                =   0.0000000000000E+00
(PID.TID 0000.0001) %MON exf_sflux_mean               =   0.0000000000000E+00
(PID.TID 0000.0001) %MON exf_sflux_sd                 =   0.0000000000000E+00
(PID.TID 0000.0001) %MON exf_sflux_del2               =   0.0000000000000E+00
(PID.TID 0000.0001) %MON exf_wspeed_max               =   0.0000000000000E+00
(PID.TID 0000.0001) %MON exf_wspeed_min               =   0.0000000000000E+00
(PID.TID 0000.0001) %MON exf_wspeed_mean              =   0.0000000000000E+00
(PID.TID 0000.0001) %MON exf_wspeed_sd                =   0.0000000000000E+00
(PID.TID 0000.0001) %MON exf_wspeed_del2              =   0.0000000000000E+00
(PID.TID 0000.0001) %MON exf_swflux_max               =   0.0000000000000E+00
(PID.TID 0000.0001) %MON exf_swflux_min               =   0.0000000000000E+00
(PID.TID 0000.0001) %MON exf_swflux_mean              =   0.0000000000000E+00
(PID.TID 0000.0001) %MON exf_swflux_sd                =   0.0000000000000E+00
(PID.TID 0000.0001) %MON exf_swflux_del2              =   0.0000000000000E+00
(PID.TID 0000.0001) %MON exf_apressure_max            =   0.0000000000000E+00
(PID.TID 0000.0001) %MON exf_apressure_min            =   0.0000000000000E+00
(PID.TID 0000.0001) %MON exf_apressure_mean           =   0.0000000000000E+00
(PID.TID 0000.0001) %MON exf_apressure_sd             =   0.0000000000000E+00
(PID.TID 0000.0001) %MON exf_apressure_del2           =   0.0000000000000E+00
(PID.TID 0000.0001) %MON exf_climsst_max              =   2.9721177895864E+01
(PID.TID 0000.0001) %MON exf_climsst_min              =  -1.9000000000000E+00
(PID.TID 0000.0001) %MON exf_climsst_mean             =   1.8487495915027E+01
(PID.TID 0000.0001) %MON exf_climsst_sd               =   9.1791634828297E+00
(PID.TID 0000.0001) %MON exf_climsst_del2             =   2.8326872740194E-01
(PID.TID 0000.0001) %MON exf_climsss_max              =   3.7467414792379E+01
(PID.TID 0000.0001) %MON exf_climsss_min              =   2.9752360343933E+01
(PID.TID 0000.0001) %MON exf_climsss_mean             =   3.4849923246049E+01
(PID.TID 0000.0001) %MON exf_climsss_sd               =   9.6319329350301E-01
(PID.TID 0000.0001) %MON exf_climsss_del2             =   8.3655824029591E-02
(PID.TID 0000.0001) // =======================================================
(PID.TID 0000.0001) // End MONITOR EXF statistics
(PID.TID 0000.0001) // =======================================================
 cg2d: Sum(rhs),rhsMax =   4.38538094726937E-14  5.05293645613935E+00
(PID.TID 0000.0001)                    cg2d_init_res =    3.39004546662000E+00
(PID.TID 0000.0001)                       cg2d_iters =    26
(PID.TID 0000.0001)                         cg2d_res =    3.27533619942717E-14
(PID.TID 0000.0001) // =======================================================
(PID.TID 0000.0001) // Begin MONITOR dynamic field statistics
(PID.TID 0000.0001) // =======================================================
(PID.TID 0000.0001) %MON time_tsnumber                =                     2
(PID.TID 0000.0001) %MON time_secondsf                =   8.6400000000000E+04
(PID.TID 0000.0001) %MON dynstat_eta_max              =   3.7996832461490E-01
(PID.TID 0000.0001) %MON dynstat_eta_min              =  -2.5474982026515E-01
(PID.TID 0000.0001) %MON dynstat_eta_mean             =  -2.7897830457504E-17
(PID.TID 0000.0001) %MON dynstat_eta_sd               =   6.0828278411479E-02
(PID.TID 0000.0001) %MON dynstat_eta_del2             =   2.2750861181421E-02
(PID.TID 0000.0001) %MON dynstat_uvel_max             =   1.8573814196651E-02
(PID.TID 0000.0001) %MON dynstat_uvel_min             =  -1.7322198706804E-02
(PID.TID 0000.0001) %MON dynstat_uvel_mean            =  -8.9846666708479E-04
(PID.TID 0000.0001) %MON dynstat_uvel_sd              =   2.1519971968277E-03
(PID.TID 0000.0001) %MON dynstat_uvel_del2            =   7.8793027554195E-04
(PID.TID 0000.0001) %MON dynstat_vvel_max             =   3.4259993200288E-02
(PID.TID 0000.0001) %MON dynstat_vvel_min             =  -1.8172880090474E-02
(PID.TID 0000.0001) %MON dynstat_vvel_mean            =   1.8003748355891E-03
(PID.TID 0000.0001) %MON dynstat_vvel_sd              =   6.3044915457492E-03
(PID.TID 0000.0001) %MON dynstat_vvel_del2            =   9.5233176940850E-04
(PID.TID 0000.0001) %MON dynstat_wvel_max             =   2.1015538355999E-04
(PID.TID 0000.0001) %MON dynstat_wvel_min             =  -1.4864817548541E-04
(PID.TID 0000.0001) %MON dynstat_wvel_mean            =   3.6699076613236E-22
(PID.TID 0000.0001) %MON dynstat_wvel_sd              =   2.4440860872797E-05
(PID.TID 0000.0001) %MON dynstat_wvel_del2            =   1.0163900673930E-05
(PID.TID 0000.0001) %MON dynstat_theta_max            =   2.9700166429583E+01
(PID.TID 0000.0001) %MON dynstat_theta_min            =  -1.9042809165832E+00
(PID.TID 0000.0001) %MON dynstat_theta_mean           =   3.6189496285697E+00
(PID.TID 0000.0001) %MON dynstat_theta_sd             =   4.4154351943439E+00
(PID.TID 0000.0001) %MON dynstat_theta_del2           =   1.5036940186768E-01
(PID.TID 0000.0001) %MON dynstat_salt_max             =   3.7464906980134E+01
(PID.TID 0000.0001) %MON dynstat_salt_min             =   2.9757106147509E+01
(PID.TID 0000.0001) %MON dynstat_salt_mean            =   3.4717942480398E+01
(PID.TID 0000.0001) %MON dynstat_salt_sd              =   2.9608965303379E-01
(PID.TID 0000.0001) %MON dynstat_salt_del2            =   2.6599160176104E-02
(PID.TID 0000.0001) %MON extforcing_qnet_max          =   4.3995407358805E+02
(PID.TID 0000.0001) %MON extforcing_qnet_min          =  -1.8079741999308E+02
(PID.TID 0000.0001) %MON extforcing_qnet_mean         =  -1.6470071417342E+01
(PID.TID 0000.0001) %MON extforcing_qnet_sd           =   1.0933313020962E+02
(PID.TID 0000.0001) %MON extforcing_qnet_del2         =   9.6427542397483E+00
(PID.TID 0000.0001) %MON extforcing_qsw_max           =   0.0000000000000E+00
(PID.TID 0000.0001) %MON extforcing_qsw_min           =   0.0000000000000E+00
(PID.TID 0000.0001) %MON extforcing_qsw_mean          =   0.0000000000000E+00
(PID.TID 0000.0001) %MON extforcing_qsw_sd            =   0.0000000000000E+00
(PID.TID 0000.0001) %MON extforcing_qsw_del2          =   0.0000000000000E+00
(PID.TID 0000.0001) %MON extforcing_empmr_max         =   0.0000000000000E+00
(PID.TID 0000.0001) %MON extforcing_empmr_min         =   0.0000000000000E+00
(PID.TID 0000.0001) %MON extforcing_empmr_mean        =   0.0000000000000E+00
(PID.TID 0000.0001) %MON extforcing_empmr_sd          =   0.0000000000000E+00
(PID.TID 0000.0001) %MON extforcing_empmr_del2        =   0.0000000000000E+00
(PID.TID 0000.0001) %MON extforcing_fu_max            =   2.7694745305926E-01
(PID.TID 0000.0001) %MON extforcing_fu_min            =  -1.6866008337044E-01
(PID.TID 0000.0001) %MON extforcing_fu_mean           =   1.6939551258767E-02
(PID.TID 0000.0001) %MON extforcing_fu_sd             =   8.7494686614630E-02
(PID.TID 0000.0001) %MON extforcing_fu_del2           =   7.7247585484891E-03
(PID.TID 0000.0001) %MON extforcing_fv_max            =   2.2466232817775E-01
(PID.TID 0000.0001) %MON extforcing_fv_min            =  -1.4932365727533E-01
(PID.TID 0000.0001) %MON extforcing_fv_mean           =  -9.7516924406216E-03
(PID.TID 0000.0001) %MON extforcing_fv_sd             =   3.8172234746860E-02
(PID.TID 0000.0001) %MON extforcing_fv_del2           =   3.5925749394743E-03
(PID.TID 0000.0001) %MON advcfl_uvel_max              =   4.7465628075212E-03
(PID.TID 0000.0001) %MON advcfl_vvel_max              =   3.3280836072924E-03
(PID.TID 0000.0001) %MON advcfl_wvel_max              =   2.9001283944985E-01
(PID.TID 0000.0001) %MON advcfl_W_hf_max              =   3.0079826730637E-01
(PID.TID 0000.0001) %MON pe_b_mean                    =   4.7346976430895E-06
(PID.TID 0000.0001) %MON ke_max                       =   4.1681731167940E-04
(PID.TID 0000.0001) %MON ke_mean                      =   2.1769898917104E-05
(PID.TID 0000.0001) %MON ke_vol                       =   1.3226782436723E+18
(PID.TID 0000.0001) %MON vort_r_min                   =  -1.0607369235498E-07
(PID.TID 0000.0001) %MON vort_r_max                   =   1.2898650906460E-07
(PID.TID 0000.0001) %MON vort_a_mean                  =  -2.5205769337908E-05
(PID.TID 0000.0001) %MON vort_a_sd                    =   7.3403112668202E-05
(PID.TID 0000.0001) %MON vort_p_mean                  =  -3.1758669487500E-05
(PID.TID 0000.0001) %MON vort_p_sd                    =   1.3126588863138E-04
(PID.TID 0000.0001) %MON surfExpan_theta_mean         =   8.4710740336970E-05
(PID.TID 0000.0001) %MON surfExpan_salt_mean          =   6.7372501782000E-06
(PID.TID 0000.0001) // =======================================================
(PID.TID 0000.0001) // End MONITOR dynamic field statistics
(PID.TID 0000.0001) // =======================================================
(PID.TID 0000.0001)  exf_GetFFieldsRec:
(PID.TID 0000.0001)  exf_GetFFieldsRec: first, changed, fac:   F   F   0.96666667E+00
(PID.TID 0000.0001)  exf_GetFFieldsRec: myiter, count0, count1:      2      1      2
(PID.TID 0000.0001)  exf_GetFFieldsRec:
(PID.TID 0000.0001)  exf_GetFFieldsRec:
(PID.TID 0000.0001)  exf_GetFFieldsRec: first, changed, fac:   F   F   0.96666667E+00
(PID.TID 0000.0001)  exf_GetFFieldsRec: myiter, count0, count1:      2      1      2
(PID.TID 0000.0001)  exf_GetFFieldsRec:
(PID.TID 0000.0001)  exf_GetFFieldsRec:
(PID.TID 0000.0001)  exf_GetFFieldsRec: first, changed, fac:   F   F   0.96666667E+00
(PID.TID 0000.0001)  exf_GetFFieldsRec: myiter, count0, count1:      2      1      2
(PID.TID 0000.0001)  exf_GetFFieldsRec:
(PID.TID 0000.0001)  exf_GetFFieldsRec:
(PID.TID 0000.0001)  exf_GetFFieldsRec: first, changed, fac:   F   F   0.96666667E+00
(PID.TID 0000.0001)  exf_GetFFieldsRec: myiter, count0, count1:      2      1      2
(PID.TID 0000.0001)  exf_GetFFieldsRec:
(PID.TID 0000.0001)  exf_GetFFieldsRec:
(PID.TID 0000.0001)  exf_GetFFieldsRec: first, changed, fac:   F   F   0.96666667E+00
(PID.TID 0000.0001)  exf_GetFFieldsRec: myiter, count0, count1:      2      1      2
(PID.TID 0000.0001)  exf_GetFFieldsRec:
(PID.TID 0000.0001) // =======================================================
(PID.TID 0000.0001) // Begin MONITOR EXF statistics
(PID.TID 0000.0001) // =======================================================
(PID.TID 0000.0001) %MON exf_tsnumber                 =                     2
(PID.TID 0000.0001) %MON exf_time_sec                 =   8.6400000000000E+04
(PID.TID 0000.0001) %MON exf_ustress_max              =   2.7721192631871E-01
(PID.TID 0000.0001) %MON exf_ustress_min              =  -1.6969103468582E-01
(PID.TID 0000.0001) %MON exf_ustress_mean             =   1.5476820464937E-02
(PID.TID 0000.0001) %MON exf_ustress_sd               =   8.8546328354259E-02
(PID.TID 0000.0001) %MON exf_ustress_del2             =   8.8873057731256E-03
(PID.TID 0000.0001) %MON exf_vstress_max              =   2.2466703982403E-01
(PID.TID 0000.0001) %MON exf_vstress_min              =  -1.7786193940168E-01
(PID.TID 0000.0001) %MON exf_vstress_mean             =  -5.2691540373785E-03
(PID.TID 0000.0001) %MON exf_vstress_sd               =   4.7313148413487E-02
(PID.TID 0000.0001) %MON exf_vstress_del2             =   5.3128480540634E-03
(PID.TID 0000.0001) %MON exf_hflux_max                =   4.3829453023275E+02
(PID.TID 0000.0001) %MON exf_hflux_min                =  -1.8026952260335E+02
(PID.TID 0000.0001) %MON exf_hflux_mean               =  -1.6427616833641E+01
(PID.TID 0000.0001) %MON exf_hflux_sd                 =   1.0879423939526E+02
(PID.TID 0000.0001) %MON exf_hflux_del2               =   9.6167859194667E+00
(PID.TID 0000.0001) %MON exf_sflux_max                =   0.0000000000000E+00
(PID.TID 0000.0001) %MON exf_sflux_min                =   0.0000000000000E+00
(PID.TID 0000.0001) %MON exf_sflux_mean               =   0.0000000000000E+00
(PID.TID 0000.0001) %MON exf_sflux_sd                 =   0.0000000000000E+00
(PID.TID 0000.0001) %MON exf_sflux_del2               =   0.0000000000000E+00
(PID.TID 0000.0001) %MON exf_wspeed_max               =   0.0000000000000E+00
(PID.TID 0000.0001) %MON exf_wspeed_min               =   0.0000000000000E+00
(PID.TID 0000.0001) %MON exf_wspeed_mean              =   0.0000000000000E+00
(PID.TID 0000.0001) %MON exf_wspeed_sd                =   0.0000000000000E+00
(PID.TID 0000.0001) %MON exf_wspeed_del2              =   0.0000000000000E+00
(PID.TID 0000.0001) %MON exf_swflux_max               =   0.0000000000000E+00
(PID.TID 0000.0001) %MON exf_swflux_min               =   0.0000000000000E+00
(PID.TID 0000.0001) %MON exf_swflux_mean              =   0.0000000000000E+00
(PID.TID 0000.0001) %MON exf_swflux_sd                =   0.0000000000000E+00
(PID.TID 0000.0001) %MON exf_swflux_del2              =   0.0000000000000E+00
(PID.TID 0000.0001) %MON exf_apressure_max            =   0.0000000000000E+00
(PID.TID 0000.0001) %MON exf_apressure_min            =   0.0000000000000E+00
(PID.TID 0000.0001) %MON exf_apressure_mean           =   0.0000000000000E+00
(PID.TID 0000.0001) %MON exf_apressure_sd             =   0.0000000000000E+00
(PID.TID 0000.0001) %MON exf_apressure_del2           =   0.0000000000000E+00
(PID.TID 0000.0001) %MON exf_climsst_max              =   2.9708966890971E+01
(PID.TID 0000.0001) %MON exf_climsst_min              =  -1.9000000000000E+00
(PID.TID 0000.0001) %MON exf_climsst_mean             =   1.8490226726359E+01
(PID.TID 0000.0001) %MON exf_climsst_sd               =   9.1787527837304E+00
(PID.TID 0000.0001) %MON exf_climsst_del2             =   2.8183425345475E-01
(PID.TID 0000.0001) %MON exf_climsss_max              =   3.7459201685588E+01
(PID.TID 0000.0001) %MON exf_climsss_min              =   2.9751951217651E+01
(PID.TID 0000.0001) %MON exf_climsss_mean             =   3.4849921216891E+01
(PID.TID 0000.0001) %MON exf_climsss_sd               =   9.6295190426465E-01
(PID.TID 0000.0001) %MON exf_climsss_del2             =   8.3089621731323E-02
(PID.TID 0000.0001) // =======================================================
(PID.TID 0000.0001) // End MONITOR EXF statistics
(PID.TID 0000.0001) // =======================================================
 cg2d: Sum(rhs),rhsMax =   6.06945049774765E-14  6.32523972623140E+00
(PID.TID 0000.0001)                    cg2d_init_res =    2.20368971364956E+00
(PID.TID 0000.0001)                       cg2d_iters =    26
(PID.TID 0000.0001)                         cg2d_res =    2.89166756017863E-14
(PID.TID 0000.0001) // =======================================================
(PID.TID 0000.0001) // Begin MONITOR dynamic field statistics
(PID.TID 0000.0001) // =======================================================
(PID.TID 0000.0001) %MON time_tsnumber                =                     3
(PID.TID 0000.0001) %MON time_secondsf                =   1.2960000000000E+05
(PID.TID 0000.0001) %MON dynstat_eta_max              =   5.1567999931737E-01
(PID.TID 0000.0001) %MON dynstat_eta_min              =  -3.8632909038753E-01
(PID.TID 0000.0001) %MON dynstat_eta_mean             =  -3.8744235248616E-17
(PID.TID 0000.0001) %MON dynstat_eta_sd               =   9.3640426788872E-02
(PID.TID 0000.0001) %MON dynstat_eta_del2             =   2.8114471943229E-02
(PID.TID 0000.0001) %MON dynstat_uvel_max             =   3.0253510902065E-02
(PID.TID 0000.0001) %MON dynstat_uvel_min             =  -3.0393314567101E-02
(PID.TID 0000.0001) %MON dynstat_uvel_mean            =  -1.5819910210724E-03
(PID.TID 0000.0001) %MON dynstat_uvel_sd              =   3.0669710020354E-03
(PID.TID 0000.0001) %MON dynstat_uvel_del2            =   1.1499545160389E-03
(PID.TID 0000.0001) %MON dynstat_vvel_max             =   4.5744113280446E-02
(PID.TID 0000.0001) %MON dynstat_vvel_min             =  -2.3407342826056E-02
(PID.TID 0000.0001) %MON dynstat_vvel_mean            =   2.6062877909088E-03
(PID.TID 0000.0001) %MON dynstat_vvel_sd              =   8.6517205710861E-03
(PID.TID 0000.0001) %MON dynstat_vvel_del2            =   1.3512246983154E-03
(PID.TID 0000.0001) %MON dynstat_wvel_max             =   1.9799994489072E-04
(PID.TID 0000.0001) %MON dynstat_wvel_min             =  -1.6851338391961E-04
(PID.TID 0000.0001) %MON dynstat_wvel_mean            =   9.8353525323473E-23
(PID.TID 0000.0001) %MON dynstat_wvel_sd              =   2.7018197384578E-05
(PID.TID 0000.0001) %MON dynstat_wvel_del2            =   8.5217776574878E-06
(PID.TID 0000.0001) %MON dynstat_theta_max            =   2.9672656856866E+01
(PID.TID 0000.0001) %MON dynstat_theta_min            =  -1.9090975684693E+00
(PID.TID 0000.0001) %MON dynstat_theta_mean           =   3.6177843963003E+00
(PID.TID 0000.0001) %MON dynstat_theta_sd             =   4.4130318136102E+00
(PID.TID 0000.0001) %MON dynstat_theta_del2           =   1.4841366165165E-01
(PID.TID 0000.0001) %MON dynstat_salt_max             =   3.7460290836288E+01
(PID.TID 0000.0001) %MON dynstat_salt_min             =   2.9760185853048E+01
(PID.TID 0000.0001) %MON dynstat_salt_mean            =   3.4717844905414E+01
(PID.TID 0000.0001) %MON dynstat_salt_sd              =   2.9610565418131E-01
(PID.TID 0000.0001) %MON dynstat_salt_del2            =   2.6532812836999E-02
(PID.TID 0000.0001) %MON extforcing_qnet_max          =   4.3829453023275E+02
(PID.TID 0000.0001) %MON extforcing_qnet_min          =  -1.8026952260335E+02
(PID.TID 0000.0001) %MON extforcing_qnet_mean         =  -1.6427616833641E+01
(PID.TID 0000.0001) %MON extforcing_qnet_sd           =   1.0879423939526E+02
(PID.TID 0000.0001) %MON extforcing_qnet_del2         =   9.6167859194667E+00
(PID.TID 0000.0001) %MON extforcing_qsw_max           =   0.0000000000000E+00
(PID.TID 0000.0001) %MON extforcing_qsw_min           =   0.0000000000000E+00
(PID.TID 0000.0001) %MON extforcing_qsw_mean          =   0.0000000000000E+00
(PID.TID 0000.0001) %MON extforcing_qsw_sd            =   0.0000000000000E+00
(PID.TID 0000.0001) %MON extforcing_qsw_del2          =   0.0000000000000E+00
(PID.TID 0000.0001) %MON extforcing_empmr_max         =   0.0000000000000E+00
(PID.TID 0000.0001) %MON extforcing_empmr_min         =   0.0000000000000E+00
(PID.TID 0000.0001) %MON extforcing_empmr_mean        =   0.0000000000000E+00
(PID.TID 0000.0001) %MON extforcing_empmr_sd          =   0.0000000000000E+00
(PID.TID 0000.0001) %MON extforcing_empmr_del2        =   0.0000000000000E+00
(PID.TID 0000.0001) %MON extforcing_fu_max            =   2.7692428212613E-01
(PID.TID 0000.0001) %MON extforcing_fu_min            =  -1.6781406626881E-01
(PID.TID 0000.0001) %MON extforcing_fu_mean           =   1.7002650048451E-02
(PID.TID 0000.0001) %MON extforcing_fu_sd             =   8.7460686277248E-02
(PID.TID 0000.0001) %MON extforcing_fu_del2           =   7.7028127773743E-03
(PID.TID 0000.0001) %MON extforcing_fv_max            =   2.2339092295927E-01
(PID.TID 0000.0001) %MON extforcing_fv_min            =  -1.4871090697901E-01
(PID.TID 0000.0001) %MON extforcing_fv_mean           =  -9.7587285437299E-03
(PID.TID 0000.0001) %MON extforcing_fv_sd             =   3.8100083398931E-02
(PID.TID 0000.0001) %MON extforcing_fv_del2           =   3.5759350528717E-03
(PID.TID 0000.0001) %MON advcfl_uvel_max              =   6.1687037993427E-03
(PID.TID 0000.0001) %MON advcfl_vvel_max              =   4.4436737815085E-03
(PID.TID 0000.0001) %MON advcfl_wvel_max              =   2.1262571452887E-01
(PID.TID 0000.0001) %MON advcfl_W_hf_max              =   2.1725243300101E-01
(PID.TID 0000.0001) %MON pe_b_mean                    =   1.1220390428301E-05
(PID.TID 0000.0001) %MON ke_max                       =   8.0826935845710E-04
(PID.TID 0000.0001) %MON ke_mean                      =   4.2064464131612E-05
(PID.TID 0000.0001) %MON ke_vol                       =   1.3226782436723E+18
(PID.TID 0000.0001) %MON vort_r_min                   =  -1.5859751736782E-07
(PID.TID 0000.0001) %MON vort_r_max                   =   1.8493851566049E-07
(PID.TID 0000.0001) %MON vort_a_mean                  =  -2.5205769354874E-05
(PID.TID 0000.0001) %MON vort_a_sd                    =   7.3402977420268E-05
(PID.TID 0000.0001) %MON vort_p_mean                  =  -3.1758669508877E-05
(PID.TID 0000.0001) %MON vort_p_sd                    =   1.3126560928775E-04
(PID.TID 0000.0001) %MON surfExpan_theta_mean         =   1.1384346750790E-04
(PID.TID 0000.0001) %MON surfExpan_salt_mean          =   9.3704818896386E-06
(PID.TID 0000.0001) // =======================================================
(PID.TID 0000.0001) // End MONITOR dynamic field statistics
(PID.TID 0000.0001) // =======================================================
(PID.TID 0000.0001)  exf_GetFFieldsRec:
(PID.TID 0000.0001)  exf_GetFFieldsRec: first, changed, fac:   F   F   0.95000000E+00
(PID.TID 0000.0001)  exf_GetFFieldsRec: myiter, count0, count1:      3      1      2
(PID.TID 0000.0001)  exf_GetFFieldsRec:
(PID.TID 0000.0001)  exf_GetFFieldsRec:
(PID.TID 0000.0001)  exf_GetFFieldsRec: first, changed, fac:   F   F   0.95000000E+00
(PID.TID 0000.0001)  exf_GetFFieldsRec: myiter, count0, count1:      3      1      2
(PID.TID 0000.0001)  exf_GetFFieldsRec:
(PID.TID 0000.0001)  exf_GetFFieldsRec:
(PID.TID 0000.0001)  exf_GetFFieldsRec: first, changed, fac:   F   F   0.95000000E+00
(PID.TID 0000.0001)  exf_GetFFieldsRec: myiter, count0, count1:      3      1      2
(PID.TID 0000.0001)  exf_GetFFieldsRec:
(PID.TID 0000.0001)  exf_GetFFieldsRec:
(PID.TID 0000.0001)  exf_GetFFieldsRec: first, changed, fac:   F   F   0.95000000E+00
(PID.TID 0000.0001)  exf_GetFFieldsRec: myiter, count0, count1:      3      1      2
(PID.TID 0000.0001)  exf_GetFFieldsRec:
(PID.TID 0000.0001)  exf_GetFFieldsRec:
(PID.TID 0000.0001)  exf_GetFFieldsRec: first, changed, fac:   F   F   0.95000000E+00
(PID.TID 0000.0001)  exf_GetFFieldsRec: myiter, count0, count1:      3      1      2
(PID.TID 0000.0001)  exf_GetFFieldsRec:
(PID.TID 0000.0001) // =======================================================
(PID.TID 0000.0001) // Begin MONITOR EXF statistics
(PID.TID 0000.0001) // =======================================================
(PID.TID 0000.0001) %MON exf_tsnumber                 =                     3
(PID.TID 0000.0001) %MON exf_time_sec                 =   1.2960000000000E+05
(PID.TID 0000.0001) %MON exf_ustress_max              =   2.7724800547585E-01
(PID.TID 0000.0001) %MON exf_ustress_min              =  -1.6877877819352E-01
(PID.TID 0000.0001) %MON exf_ustress_mean             =   1.5503377825728E-02
(PID.TID 0000.0001) %MON exf_ustress_sd               =   8.8460572030801E-02
(PID.TID 0000.0001) %MON exf_ustress_del2             =   8.8626050806829E-03
(PID.TID 0000.0001) %MON exf_vstress_max              =   2.2332274094224E-01
(PID.TID 0000.0001) %MON exf_vstress_min              =  -1.7720233215950E-01
(PID.TID 0000.0001) %MON exf_vstress_mean             =  -5.2996018387345E-03
(PID.TID 0000.0001) %MON exf_vstress_sd               =   4.7155810065966E-02
(PID.TID 0000.0001) %MON exf_vstress_del2             =   5.2876429562541E-03
(PID.TID 0000.0001) %MON exf_hflux_max                =   4.3663498687744E+02
(PID.TID 0000.0001) %MON exf_hflux_min                =  -1.7974162521362E+02
(PID.TID 0000.0001) %MON exf_hflux_mean               =  -1.6385162249939E+01
(PID.TID 0000.0001) %MON exf_hflux_sd                 =   1.0825622336309E+02
(PID.TID 0000.0001) %MON exf_hflux_del2               =   9.5910463469764E+00
(PID.TID 0000.0001) %MON exf_sflux_max                =   0.0000000000000E+00
(PID.TID 0000.0001) %MON exf_sflux_min                =   0.0000000000000E+00
(PID.TID 0000.0001) %MON exf_sflux_mean               =   0.0000000000000E+00
(PID.TID 0000.0001) %MON exf_sflux_sd                 =   0.0000000000000E+00
(PID.TID 0000.0001) %MON exf_sflux_del2               =   0.0000000000000E+00
(PID.TID 0000.0001) %MON exf_wspeed_max               =   0.0000000000000E+00
(PID.TID 0000.0001) %MON exf_wspeed_min               =   0.0000000000000E+00
(PID.TID 0000.0001) %MON exf_wspeed_mean              =   0.0000000000000E+00
(PID.TID 0000.0001) %MON exf_wspeed_sd                =   0.0000000000000E+00
(PID.TID 0000.0001) %MON exf_wspeed_del2              =   0.0000000000000E+00
(PID.TID 0000.0001) %MON exf_swflux_max               =   0.0000000000000E+00
(PID.TID 0000.0001) %MON exf_swflux_min               =   0.0000000000000E+00
(PID.TID 0000.0001) %MON exf_swflux_mean              =   0.0000000000000E+00
(PID.TID 0000.0001) %MON exf_swflux_sd                =   0.0000000000000E+00
(PID.TID 0000.0001) %MON exf_swflux_del2              =   0.0000000000000E+00
(PID.TID 0000.0001) %MON exf_apressure_max            =   0.0000000000000E+00
(PID.TID 0000.0001) %MON exf_apressure_min            =   0.0000000000000E+00
(PID.TID 0000.0001) %MON exf_apressure_mean           =   0.0000000000000E+00
(PID.TID 0000.0001) %MON exf_apressure_sd             =   0.0000000000000E+00
(PID.TID 0000.0001) %MON exf_apressure_del2           =   0.0000000000000E+00
(PID.TID 0000.0001) %MON exf_climsst_max              =   2.9696755886078E+01
(PID.TID 0000.0001) %MON exf_climsst_min              =  -1.9000000000000E+00
(PID.TID 0000.0001) %MON exf_climsst_mean             =   1.8492957537692E+01
(PID.TID 0000.0001) %MON exf_climsst_sd               =   9.1783620633772E+00
(PID.TID 0000.0001) %MON exf_climsst_del2             =   2.8046115560036E-01
(PID.TID 0000.0001) %MON exf_climsss_max              =   3.7450988578796E+01
(PID.TID 0000.0001) %MON exf_climsss_min              =   2.9751542091370E+01
(PID.TID 0000.0001) %MON exf_climsss_mean             =   3.4849919187733E+01
(PID.TID 0000.0001) %MON exf_climsss_sd               =   9.6272514724598E-01
(PID.TID 0000.0001) %MON exf_climsss_del2             =   8.2543142434073E-02
(PID.TID 0000.0001) // =======================================================
(PID.TID 0000.0001) // End MONITOR EXF statistics
(PID.TID 0000.0001) // =======================================================
 cg2d: Sum(rhs),rhsMax =   5.78981307342019E-14  6.76151989694135E+00
(PID.TID 0000.0001)                    cg2d_init_res =    1.89655678355617E+00
(PID.TID 0000.0001)                       cg2d_iters =    26
(PID.TID 0000.0001)                         cg2d_res =    2.59924342126936E-14
(PID.TID 0000.0001) // =======================================================
(PID.TID 0000.0001) // Begin MONITOR dynamic field statistics
(PID.TID 0000.0001) // =======================================================
(PID.TID 0000.0001) %MON time_tsnumber                =                     4
(PID.TID 0000.0001) %MON time_secondsf                =   1.7280000000000E+05
(PID.TID 0000.0001) %MON dynstat_eta_max              =   5.9330907643128E-01
(PID.TID 0000.0001) %MON dynstat_eta_min              =  -5.0428586442412E-01
(PID.TID 0000.0001) %MON dynstat_eta_mean             =  -5.0291092795319E-17
(PID.TID 0000.0001) %MON dynstat_eta_sd               =   1.2394025158721E-01
(PID.TID 0000.0001) %MON dynstat_eta_del2             =   2.9319253453240E-02
(PID.TID 0000.0001) %MON dynstat_uvel_max             =   4.2235549261438E-02
(PID.TID 0000.0001) %MON dynstat_uvel_min             =  -4.2752808793005E-02
(PID.TID 0000.0001) %MON dynstat_uvel_mean            =  -2.3833003963730E-03
(PID.TID 0000.0001) %MON dynstat_uvel_sd              =   4.1266556692342E-03
(PID.TID 0000.0001) %MON dynstat_uvel_del2            =   1.4974534105855E-03
(PID.TID 0000.0001) %MON dynstat_vvel_max             =   5.3473619503488E-02
(PID.TID 0000.0001) %MON dynstat_vvel_min             =  -3.4585499750976E-02
(PID.TID 0000.0001) %MON dynstat_vvel_mean            =   3.3229704138456E-03
(PID.TID 0000.0001) %MON dynstat_vvel_sd              =   1.0606462239712E-02
(PID.TID 0000.0001) %MON dynstat_vvel_del2            =   1.7510492270101E-03
(PID.TID 0000.0001) %MON dynstat_wvel_max             =   2.0351293889274E-04
(PID.TID 0000.0001) %MON dynstat_wvel_min             =  -2.0406723347442E-04
(PID.TID 0000.0001) %MON dynstat_wvel_mean            =   2.4955372097001E-22
(PID.TID 0000.0001) %MON dynstat_wvel_sd              =   2.8758995870064E-05
(PID.TID 0000.0001) %MON dynstat_wvel_del2            =   8.0967392087659E-06
(PID.TID 0000.0001) %MON dynstat_theta_max            =   2.9685672194213E+01
(PID.TID 0000.0001) %MON dynstat_theta_min            =  -1.9219492011308E+00
(PID.TID 0000.0001) %MON dynstat_theta_mean           =   3.6163486310185E+00
(PID.TID 0000.0001) %MON dynstat_theta_sd             =   4.4101040620418E+00
(PID.TID 0000.0001) %MON dynstat_theta_del2           =   1.4746180849156E-01
(PID.TID 0000.0001) %MON dynstat_salt_max             =   3.7456023557075E+01
(PID.TID 0000.0001) %MON dynstat_salt_min             =   2.9763545932685E+01
(PID.TID 0000.0001) %MON dynstat_salt_mean            =   3.4717721519617E+01
(PID.TID 0000.0001) %MON dynstat_salt_sd              =   2.9612333111241E-01
(PID.TID 0000.0001) %MON dynstat_salt_del2            =   2.6468152822460E-02
(PID.TID 0000.0001) %MON extforcing_qnet_max          =   4.3663498687744E+02
(PID.TID 0000.0001) %MON extforcing_qnet_min          =  -1.7974162521362E+02
(PID.TID 0000.0001) %MON extforcing_qnet_mean         =  -1.6385162249939E+01
(PID.TID 0000.0001) %MON extforcing_qnet_sd           =   1.0825622336309E+02
(PID.TID 0000.0001) %MON extforcing_qnet_del2         =   9.5910463469764E+00
(PID.TID 0000.0001) %MON extforcing_qsw_max           =   0.0000000000000E+00
(PID.TID 0000.0001) %MON extforcing_qsw_min           =   0.0000000000000E+00
(PID.TID 0000.0001) %MON extforcing_qsw_mean          =   0.0000000000000E+00
(PID.TID 0000.0001) %MON extforcing_qsw_sd            =   0.0000000000000E+00
(PID.TID 0000.0001) %MON extforcing_qsw_del2          =   0.0000000000000E+00
(PID.TID 0000.0001) %MON extforcing_empmr_max         =   0.0000000000000E+00
(PID.TID 0000.0001) %MON extforcing_empmr_min         =   0.0000000000000E+00
(PID.TID 0000.0001) %MON extforcing_empmr_mean        =   0.0000000000000E+00
(PID.TID 0000.0001) %MON extforcing_empmr_sd          =   0.0000000000000E+00
(PID.TID 0000.0001) %MON extforcing_empmr_del2        =   0.0000000000000E+00
(PID.TID 0000.0001) %MON extforcing_fu_max            =   2.7690111119300E-01
(PID.TID 0000.0001) %MON extforcing_fu_min            =  -1.6696804916719E-01
(PID.TID 0000.0001) %MON extforcing_fu_mean           =   1.7065748838135E-02
(PID.TID 0000.0001) %MON extforcing_fu_sd             =   8.7430849701394E-02
(PID.TID 0000.0001) %MON extforcing_fu_del2           =   7.6817239852505E-03
(PID.TID 0000.0001) %MON extforcing_fv_max            =   2.2211951774079E-01
(PID.TID 0000.0001) %MON extforcing_fv_min            =  -1.4809815668268E-01
(PID.TID 0000.0001) %MON extforcing_fv_mean           =  -9.7657646468382E-03
(PID.TID 0000.0001) %MON extforcing_fv_sd             =   3.8030829607520E-02
(PID.TID 0000.0001) %MON extforcing_fv_del2           =   3.5599914121777E-03
(PID.TID 0000.0001) %MON advcfl_uvel_max              =   9.3196632497617E-03
(PID.TID 0000.0001) %MON advcfl_vvel_max              =   5.1945333278891E-03
(PID.TID 0000.0001) %MON advcfl_wvel_max              =   2.3969369048062E-01
(PID.TID 0000.0001) %MON advcfl_W_hf_max              =   2.4009307170701E-01
(PID.TID 0000.0001) %MON pe_b_mean                    =   1.9656488967530E-05
(PID.TID 0000.0001) %MON ke_max                       =   1.2540786734502E-03
(PID.TID 0000.0001) %MON ke_mean                      =   6.5779378830650E-05
(PID.TID 0000.0001) %MON ke_vol                       =   1.3226782436723E+18
(PID.TID 0000.0001) %MON vort_r_min                   =  -2.0762756063501E-07
(PID.TID 0000.0001) %MON vort_r_max                   =   2.3456936500137E-07
(PID.TID 0000.0001) %MON vort_a_mean                  =  -2.5205769358472E-05
(PID.TID 0000.0001) %MON vort_a_sd                    =   7.3402823024072E-05
(PID.TID 0000.0001) %MON vort_p_mean                  =  -3.1758669513410E-05
(PID.TID 0000.0001) %MON vort_p_sd                    =   1.3126524135507E-04
(PID.TID 0000.0001) %MON surfExpan_theta_mean         =   1.3608778659280E-04
(PID.TID 0000.0001) %MON surfExpan_salt_mean          =   1.1322953116740E-05
(PID.TID 0000.0001) // =======================================================
(PID.TID 0000.0001) // End MONITOR dynamic field statistics
(PID.TID 0000.0001) // =======================================================
(PID.TID 0000.0001)  exf_GetFFieldsRec:
(PID.TID 0000.0001)  exf_GetFFieldsRec: first, changed, fac:   F   F   0.93333333E+00
(PID.TID 0000.0001)  exf_GetFFieldsRec: myiter, count0, count1:      4      1      2
(PID.TID 0000.0001)  exf_GetFFieldsRec:
(PID.TID 0000.0001)  exf_GetFFieldsRec:
(PID.TID 0000.0001)  exf_GetFFieldsRec: first, changed, fac:   F   F   0.93333333E+00
(PID.TID 0000.0001)  exf_GetFFieldsRec: myiter, count0, count1:      4      1      2
(PID.TID 0000.0001)  exf_GetFFieldsRec:
(PID.TID 0000.0001)  exf_GetFFieldsRec:
(PID.TID 0000.0001)  exf_GetFFieldsRec: first, changed, fac:   F   F   0.93333333E+00
(PID.TID 0000.0001)  exf_GetFFieldsRec: myiter, count0, count1:      4      1      2
(PID.TID 0000.0001)  exf_GetFFieldsRec:
(PID.TID 0000.0001)  exf_GetFFieldsRec:
(PID.TID 0000.0001)  exf_GetFFieldsRec: first, changed, fac:   F   F   0.93333333E+00
(PID.TID 0000.0001)  exf_GetFFieldsRec: myiter, count0, count1:      4      1      2
(PID.TID 0000.0001)  exf_GetFFieldsRec:
(PID.TID 0000.0001)  exf_GetFFieldsRec:
(PID.TID 0000.0001)  exf_GetFFieldsRec: first, changed, fac:   F   F   0.93333333E+00
(PID.TID 0000.0001)  exf_GetFFieldsRec: myiter, count0, count1:      4      1      2
(PID.TID 0000.0001)  exf_GetFFieldsRec:
(PID.TID 0000.0001) // =======================================================
(PID.TID 0000.0001) // Begin MONITOR EXF statistics
(PID.TID 0000.0001) // =======================================================
(PID.TID 0000.0001) %MON exf_tsnumber                 =                     4
(PID.TID 0000.0001) %MON exf_time_sec                 =   1.7280000000000E+05
(PID.TID 0000.0001) %MON exf_ustress_max              =   2.7728408463299E-01
(PID.TID 0000.0001) %MON exf_ustress_min              =  -1.6786652170122E-01
(PID.TID 0000.0001) %MON exf_ustress_mean             =   1.5529935186520E-02
(PID.TID 0000.0001) %MON exf_ustress_sd               =   8.8379010814128E-02
(PID.TID 0000.0001) %MON exf_ustress_del2             =   8.8387834067299E-03
(PID.TID 0000.0001) %MON exf_vstress_max              =   2.2197844206045E-01
(PID.TID 0000.0001) %MON exf_vstress_min              =  -1.7654272491733E-01
(PID.TID 0000.0001) %MON exf_vstress_mean             =  -5.3300496400905E-03
(PID.TID 0000.0001) %MON exf_vstress_sd               =   4.7001545098816E-02
(PID.TID 0000.0001) %MON exf_vstress_del2             =   5.2635913741244E-03
(PID.TID 0000.0001) %MON exf_hflux_max                =   4.3497544352214E+02
(PID.TID 0000.0001) %MON exf_hflux_min                =  -1.7954050801595E+02
(PID.TID 0000.0001) %MON exf_hflux_mean               =  -1.6342707666237E+01
(PID.TID 0000.0001) %MON exf_hflux_sd                 =   1.0771909522073E+02
(PID.TID 0000.0001) %MON exf_hflux_del2               =   9.5655196170201E+00
(PID.TID 0000.0001) %MON exf_sflux_max                =   0.0000000000000E+00
(PID.TID 0000.0001) %MON exf_sflux_min                =   0.0000000000000E+00
(PID.TID 0000.0001) %MON exf_sflux_mean               =   0.0000000000000E+00
(PID.TID 0000.0001) %MON exf_sflux_sd                 =   0.0000000000000E+00
(PID.TID 0000.0001) %MON exf_sflux_del2               =   0.0000000000000E+00
(PID.TID 0000.0001) %MON exf_wspeed_max               =   0.0000000000000E+00
(PID.TID 0000.0001) %MON exf_wspeed_min               =   0.0000000000000E+00
(PID.TID 0000.0001) %MON exf_wspeed_mean              =   0.0000000000000E+00
(PID.TID 0000.0001) %MON exf_wspeed_sd                =   0.0000000000000E+00
(PID.TID 0000.0001) %MON exf_wspeed_del2              =   0.0000000000000E+00
(PID.TID 0000.0001) %MON exf_swflux_max               =   0.0000000000000E+00
(PID.TID 0000.0001) %MON exf_swflux_min               =   0.0000000000000E+00
(PID.TID 0000.0001) %MON exf_swflux_mean              =   0.0000000000000E+00
(PID.TID 0000.0001) %MON exf_swflux_sd                =   0.0000000000000E+00
(PID.TID 0000.0001) %MON exf_swflux_del2              =   0.0000000000000E+00
(PID.TID 0000.0001) %MON exf_apressure_max            =   0.0000000000000E+00
(PID.TID 0000.0001) %MON exf_apressure_min            =   0.0000000000000E+00
(PID.TID 0000.0001) %MON exf_apressure_mean           =   0.0000000000000E+00
(PID.TID 0000.0001) %MON exf_apressure_sd             =   0.0000000000000E+00
(PID.TID 0000.0001) %MON exf_apressure_del2           =   0.0000000000000E+00
(PID.TID 0000.0001) %MON exf_climsst_max              =   2.9684544881185E+01
(PID.TID 0000.0001) %MON exf_climsst_min              =  -1.9000000000000E+00
(PID.TID 0000.0001) %MON exf_climsst_mean             =   1.8495688349024E+01
(PID.TID 0000.0001) %MON exf_climsst_sd               =   9.1779913243217E+00
(PID.TID 0000.0001) %MON exf_climsst_del2             =   2.7915843395658E-01
(PID.TID 0000.0001) %MON exf_climsss_max              =   3.7442775472005E+01
(PID.TID 0000.0001) %MON exf_climsss_min              =   2.9751132965088E+01
(PID.TID 0000.0001) %MON exf_climsss_mean             =   3.4849917158575E+01
(PID.TID 0000.0001) %MON exf_climsss_sd               =   9.6251303278857E-01
(PID.TID 0000.0001) %MON exf_climsss_del2             =   8.2010363475121E-02
(PID.TID 0000.0001) // =======================================================
(PID.TID 0000.0001) // End MONITOR EXF statistics
(PID.TID 0000.0001) // =======================================================
 cg2d: Sum(rhs),rhsMax =   1.11799458579753E-13  6.91092168843261E+00
(PID.TID 0000.0001)                    cg2d_init_res =    1.79477032489345E+00
(PID.TID 0000.0001)                       cg2d_iters =    26
(PID.TID 0000.0001)                         cg2d_res =    2.69059390113394E-14
(PID.TID 0000.0001) // =======================================================
(PID.TID 0000.0001) // Begin MONITOR dynamic field statistics
(PID.TID 0000.0001) // =======================================================
(PID.TID 0000.0001) %MON time_tsnumber                =                     5
(PID.TID 0000.0001) %MON time_secondsf                =   2.1600000000000E+05
(PID.TID 0000.0001) %MON dynstat_eta_max              =   6.3903783840141E-01
(PID.TID 0000.0001) %MON dynstat_eta_min              =  -5.8482829608472E-01
(PID.TID 0000.0001) %MON dynstat_eta_mean             =  -8.2639274598948E-18
(PID.TID 0000.0001) %MON dynstat_eta_sd               =   1.5276909252897E-01
(PID.TID 0000.0001) %MON dynstat_eta_del2             =   2.8812046235378E-02
(PID.TID 0000.0001) %MON dynstat_uvel_max             =   5.4054216460306E-02
(PID.TID 0000.0001) %MON dynstat_uvel_min             =  -5.3081325060638E-02
(PID.TID 0000.0001) %MON dynstat_uvel_mean            =  -3.2720935259939E-03
(PID.TID 0000.0001) %MON dynstat_uvel_sd              =   5.3070911023283E-03
(PID.TID 0000.0001) %MON dynstat_uvel_del2            =   1.8089763382114E-03
(PID.TID 0000.0001) %MON dynstat_vvel_max             =   5.8236287846264E-02
(PID.TID 0000.0001) %MON dynstat_vvel_min             =  -4.6635346955303E-02
(PID.TID 0000.0001) %MON dynstat_vvel_mean            =   3.9343655930952E-03
(PID.TID 0000.0001) %MON dynstat_vvel_sd              =   1.2203381421174E-02
(PID.TID 0000.0001) %MON dynstat_vvel_del2            =   2.1136356071047E-03
(PID.TID 0000.0001) %MON dynstat_wvel_max             =   2.3125089896592E-04
(PID.TID 0000.0001) %MON dynstat_wvel_min             =  -2.3635916074381E-04
(PID.TID 0000.0001) %MON dynstat_wvel_mean            =  -2.8772076064777E-22
(PID.TID 0000.0001) %MON dynstat_wvel_sd              =   3.0512960089691E-05
(PID.TID 0000.0001) %MON dynstat_wvel_del2            =   8.8367580910360E-06
(PID.TID 0000.0001) %MON dynstat_theta_max            =   2.9723833860042E+01
(PID.TID 0000.0001) %MON dynstat_theta_min            =  -1.9450253644973E+00
(PID.TID 0000.0001) %MON dynstat_theta_mean           =   3.6147087887133E+00
(PID.TID 0000.0001) %MON dynstat_theta_sd             =   4.4067527608012E+00
(PID.TID 0000.0001) %MON dynstat_theta_del2           =   1.4698225116185E-01
(PID.TID 0000.0001) %MON dynstat_salt_max             =   3.7451613273306E+01
(PID.TID 0000.0001) %MON dynstat_salt_min             =   2.9767033585727E+01
(PID.TID 0000.0001) %MON dynstat_salt_mean            =   3.4717580738680E+01
(PID.TID 0000.0001) %MON dynstat_salt_sd              =   2.9614770821314E-01
(PID.TID 0000.0001) %MON dynstat_salt_del2            =   2.6411204253587E-02
(PID.TID 0000.0001) %MON extforcing_qnet_max          =   4.3497544352214E+02
(PID.TID 0000.0001) %MON extforcing_qnet_min          =  -1.7954050801595E+02
(PID.TID 0000.0001) %MON extforcing_qnet_mean         =  -1.6342707666237E+01
(PID.TID 0000.0001) %MON extforcing_qnet_sd           =   1.0771909522073E+02
(PID.TID 0000.0001) %MON extforcing_qnet_del2         =   9.5655196170201E+00
(PID.TID 0000.0001) %MON extforcing_qsw_max           =   0.0000000000000E+00
(PID.TID 0000.0001) %MON extforcing_qsw_min           =   0.0000000000000E+00
(PID.TID 0000.0001) %MON extforcing_qsw_mean          =   0.0000000000000E+00
(PID.TID 0000.0001) %MON extforcing_qsw_sd            =   0.0000000000000E+00
(PID.TID 0000.0001) %MON extforcing_qsw_del2          =   0.0000000000000E+00
(PID.TID 0000.0001) %MON extforcing_empmr_max         =   0.0000000000000E+00
(PID.TID 0000.0001) %MON extforcing_empmr_min         =   0.0000000000000E+00
(PID.TID 0000.0001) %MON extforcing_empmr_mean        =   0.0000000000000E+00
(PID.TID 0000.0001) %MON extforcing_empmr_sd          =   0.0000000000000E+00
(PID.TID 0000.0001) %MON extforcing_empmr_del2        =   0.0000000000000E+00
(PID.TID 0000.0001) %MON extforcing_fu_max            =   2.7687794025987E-01
(PID.TID 0000.0001) %MON extforcing_fu_min            =  -1.6612203206557E-01
(PID.TID 0000.0001) %MON extforcing_fu_mean           =   1.7128847627820E-02
(PID.TID 0000.0001) %MON extforcing_fu_sd             =   8.7405181151085E-02
(PID.TID 0000.0001) %MON extforcing_fu_del2           =   7.6618266805825E-03
(PID.TID 0000.0001) %MON extforcing_fv_max            =   2.2084811252231E-01
(PID.TID 0000.0001) %MON extforcing_fv_min            =  -1.4748540638636E-01
(PID.TID 0000.0001) %MON extforcing_fv_mean           =  -9.7728007499465E-03
(PID.TID 0000.0001) %MON extforcing_fv_sd             =   3.7964489229563E-02
(PID.TID 0000.0001) %MON extforcing_fv_del2           =   3.5449921400846E-03
(PID.TID 0000.0001) %MON advcfl_uvel_max              =   1.2089757496256E-02
(PID.TID 0000.0001) %MON advcfl_vvel_max              =   5.6571883653814E-03
(PID.TID 0000.0001) %MON advcfl_wvel_max              =   2.4855928412362E-01
(PID.TID 0000.0001) %MON advcfl_W_hf_max              =   2.5250497855998E-01
(PID.TID 0000.0001) %MON pe_b_mean                    =   2.9864290254199E-05
(PID.TID 0000.0001) %MON ke_max                       =   1.7533376337419E-03
(PID.TID 0000.0001) %MON ke_mean                      =   9.1467205992714E-05
(PID.TID 0000.0001) %MON ke_vol                       =   1.3226782436723E+18
(PID.TID 0000.0001) %MON vort_r_min                   =  -2.5048302814957E-07
(PID.TID 0000.0001) %MON vort_r_max                   =   2.7641504735755E-07
(PID.TID 0000.0001) %MON vort_a_mean                  =  -2.5205769355875E-05
(PID.TID 0000.0001) %MON vort_a_sd                    =   7.3402654418391E-05
(PID.TID 0000.0001) %MON vort_p_mean                  =  -3.1758669510139E-05
(PID.TID 0000.0001) %MON vort_p_sd                    =   1.3126479099171E-04
(PID.TID 0000.0001) %MON surfExpan_theta_mean         =   1.5227626585253E-04
(PID.TID 0000.0001) %MON surfExpan_salt_mean          =   1.2640997621001E-05
(PID.TID 0000.0001) // =======================================================
(PID.TID 0000.0001) // End MONITOR dynamic field statistics
(PID.TID 0000.0001) // =======================================================
(PID.TID 0000.0001)  exf_GetFFieldsRec:
(PID.TID 0000.0001)  exf_GetFFieldsRec: first, changed, fac:   F   F   0.91666667E+00
(PID.TID 0000.0001)  exf_GetFFieldsRec: myiter, count0, count1:      5      1      2
(PID.TID 0000.0001)  exf_GetFFieldsRec:
(PID.TID 0000.0001)  exf_GetFFieldsRec:
(PID.TID 0000.0001)  exf_GetFFieldsRec: first, changed, fac:   F   F   0.91666667E+00
(PID.TID 0000.0001)  exf_GetFFieldsRec: myiter, count0, count1:      5      1      2
(PID.TID 0000.0001)  exf_GetFFieldsRec:
(PID.TID 0000.0001)  exf_GetFFieldsRec:
(PID.TID 0000.0001)  exf_GetFFieldsRec: first, changed, fac:   F   F   0.91666667E+00
(PID.TID 0000.0001)  exf_GetFFieldsRec: myiter, count0, count1:      5      1      2
(PID.TID 0000.0001)  exf_GetFFieldsRec:
(PID.TID 0000.0001)  exf_GetFFieldsRec:
(PID.TID 0000.0001)  exf_GetFFieldsRec: first, changed, fac:   F   F   0.91666667E+00
(PID.TID 0000.0001)  exf_GetFFieldsRec: myiter, count0, count1:      5      1      2
(PID.TID 0000.0001)  exf_GetFFieldsRec:
(PID.TID 0000.0001)  exf_GetFFieldsRec:
(PID.TID 0000.0001)  exf_GetFFieldsRec: first, changed, fac:   F   F   0.91666667E+00
(PID.TID 0000.0001)  exf_GetFFieldsRec: myiter, count0, count1:      5      1      2
(PID.TID 0000.0001)  exf_GetFFieldsRec:
(PID.TID 0000.0001) // =======================================================
(PID.TID 0000.0001) // Begin MONITOR EXF statistics
(PID.TID 0000.0001) // =======================================================
(PID.TID 0000.0001) %MON exf_tsnumber                 =                     5
(PID.TID 0000.0001) %MON exf_time_sec                 =   2.1600000000000E+05
(PID.TID 0000.0001) %MON exf_ustress_max              =   2.7732016379014E-01
(PID.TID 0000.0001) %MON exf_ustress_min              =  -1.6695426520891E-01
(PID.TID 0000.0001) %MON exf_ustress_mean             =   1.5556492547311E-02
(PID.TID 0000.0001) %MON exf_ustress_sd               =   8.8301656328872E-02
(PID.TID 0000.0001) %MON exf_ustress_del2             =   8.8163994702870E-03
(PID.TID 0000.0001) %MON exf_vstress_max              =   2.2063414317866E-01
(PID.TID 0000.0001) %MON exf_vstress_min              =  -1.7588311767516E-01
(PID.TID 0000.0001) %MON exf_vstress_mean             =  -5.3604974414465E-03
(PID.TID 0000.0001) %MON exf_vstress_sd               =   4.6850383871345E-02
(PID.TID 0000.0001) %MON exf_vstress_del2             =   5.2404637830777E-03
(PID.TID 0000.0001) %MON exf_hflux_max                =   4.3331590016683E+02
(PID.TID 0000.0001) %MON exf_hflux_min                =  -1.7942074839274E+02
(PID.TID 0000.0001) %MON exf_hflux_mean               =  -1.6300253082536E+01
(PID.TID 0000.0001) %MON exf_hflux_sd                 =   1.0718286831669E+02
(PID.TID 0000.0001) %MON exf_hflux_del2               =   9.5402517261256E+00
(PID.TID 0000.0001) %MON exf_sflux_max                =   0.0000000000000E+00
(PID.TID 0000.0001) %MON exf_sflux_min                =   0.0000000000000E+00
(PID.TID 0000.0001) %MON exf_sflux_mean               =   0.0000000000000E+00
(PID.TID 0000.0001) %MON exf_sflux_sd                 =   0.0000000000000E+00
(PID.TID 0000.0001) %MON exf_sflux_del2               =   0.0000000000000E+00
(PID.TID 0000.0001) %MON exf_wspeed_max               =   0.0000000000000E+00
(PID.TID 0000.0001) %MON exf_wspeed_min               =   0.0000000000000E+00
(PID.TID 0000.0001) %MON exf_wspeed_mean              =   0.0000000000000E+00
(PID.TID 0000.0001) %MON exf_wspeed_sd                =   0.0000000000000E+00
(PID.TID 0000.0001) %MON exf_wspeed_del2              =   0.0000000000000E+00
(PID.TID 0000.0001) %MON exf_swflux_max               =   0.0000000000000E+00
(PID.TID 0000.0001) %MON exf_swflux_min               =   0.0000000000000E+00
(PID.TID 0000.0001) %MON exf_swflux_mean              =   0.0000000000000E+00
(PID.TID 0000.0001) %MON exf_swflux_sd                =   0.0000000000000E+00
(PID.TID 0000.0001) %MON exf_swflux_del2              =   0.0000000000000E+00
(PID.TID 0000.0001) %MON exf_apressure_max            =   0.0000000000000E+00
(PID.TID 0000.0001) %MON exf_apressure_min            =   0.0000000000000E+00
(PID.TID 0000.0001) %MON exf_apressure_mean           =   0.0000000000000E+00
(PID.TID 0000.0001) %MON exf_apressure_sd             =   0.0000000000000E+00
(PID.TID 0000.0001) %MON exf_apressure_del2           =   0.0000000000000E+00
(PID.TID 0000.0001) %MON exf_climsst_max              =   2.9672333876292E+01
(PID.TID 0000.0001) %MON exf_climsst_min              =  -1.9000000000000E+00
(PID.TID 0000.0001) %MON exf_climsst_mean             =   1.8498420882735E+01
(PID.TID 0000.0001) %MON exf_climsst_sd               =   9.1776367416142E+00
(PID.TID 0000.0001) %MON exf_climsst_del2             =   2.7789802352571E-01
(PID.TID 0000.0001) %MON exf_climsss_max              =   3.7434562365214E+01
(PID.TID 0000.0001) %MON exf_climsss_min              =   2.9750723838806E+01
(PID.TID 0000.0001) %MON exf_climsss_mean             =   3.4849915129418E+01
(PID.TID 0000.0001) %MON exf_climsss_sd               =   9.6231557057497E-01
(PID.TID 0000.0001) %MON exf_climsss_del2             =   8.1497355825700E-02
(PID.TID 0000.0001) // =======================================================
(PID.TID 0000.0001) // End MONITOR EXF statistics
(PID.TID 0000.0001) // =======================================================
 cg2d: Sum(rhs),rhsMax =   1.06581410364015E-14  6.96019702074780E+00
(PID.TID 0000.0001)                    cg2d_init_res =    1.72302764547202E+00
(PID.TID 0000.0001)                       cg2d_iters =    26
(PID.TID 0000.0001)                         cg2d_res =    2.75475254111920E-14
(PID.TID 0000.0001) // =======================================================
(PID.TID 0000.0001) // Begin MONITOR dynamic field statistics
(PID.TID 0000.0001) // =======================================================
(PID.TID 0000.0001) %MON time_tsnumber                =                     6
(PID.TID 0000.0001) %MON time_secondsf                =   2.5920000000000E+05
(PID.TID 0000.0001) %MON dynstat_eta_max              =   7.2901604763870E-01
(PID.TID 0000.0001) %MON dynstat_eta_min              =  -6.4972353684133E-01
(PID.TID 0000.0001) %MON dynstat_eta_mean             =   8.8299498886547E-18
(PID.TID 0000.0001) %MON dynstat_eta_sd               =   1.8066422826858E-01
(PID.TID 0000.0001) %MON dynstat_eta_del2             =   2.7911282451911E-02
(PID.TID 0000.0001) %MON dynstat_uvel_max             =   6.5414128048626E-02
(PID.TID 0000.0001) %MON dynstat_uvel_min             =  -6.1453535156158E-02
(PID.TID 0000.0001) %MON dynstat_uvel_mean            =  -4.2164325607432E-03
(PID.TID 0000.0001) %MON dynstat_uvel_sd              =   6.5691321621097E-03
(PID.TID 0000.0001) %MON dynstat_uvel_del2            =   2.0898316218098E-03
(PID.TID 0000.0001) %MON dynstat_vvel_max             =   6.6616887401275E-02
(PID.TID 0000.0001) %MON dynstat_vvel_min             =  -5.8023361233846E-02
(PID.TID 0000.0001) %MON dynstat_vvel_mean            =   4.4277916178020E-03
(PID.TID 0000.0001) %MON dynstat_vvel_sd              =   1.3459018297955E-02
(PID.TID 0000.0001) %MON dynstat_vvel_del2            =   2.4288404999673E-03
(PID.TID 0000.0001) %MON dynstat_wvel_max             =   2.5359394179134E-04
(PID.TID 0000.0001) %MON dynstat_wvel_min             =  -2.6315755135287E-04
(PID.TID 0000.0001) %MON dynstat_wvel_mean            =  -1.1391393380748E-21
(PID.TID 0000.0001) %MON dynstat_wvel_sd              =   3.2288335405995E-05
(PID.TID 0000.0001) %MON dynstat_wvel_del2            =   9.9865434197720E-06
(PID.TID 0000.0001) %MON dynstat_theta_max            =   2.9760477919101E+01
(PID.TID 0000.0001) %MON dynstat_theta_min            =  -1.9740838359411E+00
(PID.TID 0000.0001) %MON dynstat_theta_mean           =   3.6129277240502E+00
(PID.TID 0000.0001) %MON dynstat_theta_sd             =   4.4030560376629E+00
(PID.TID 0000.0001) %MON dynstat_theta_del2           =   1.4654123929257E-01
(PID.TID 0000.0001) %MON dynstat_salt_max             =   3.7447224892717E+01
(PID.TID 0000.0001) %MON dynstat_salt_min             =   2.9770500152113E+01
(PID.TID 0000.0001) %MON dynstat_salt_mean            =   3.4717429406437E+01
(PID.TID 0000.0001) %MON dynstat_salt_sd              =   2.9616761840939E-01
(PID.TID 0000.0001) %MON dynstat_salt_del2            =   2.6360228936928E-02
(PID.TID 0000.0001) %MON extforcing_qnet_max          =   4.3331590016683E+02
(PID.TID 0000.0001) %MON extforcing_qnet_min          =  -1.7942074839274E+02
(PID.TID 0000.0001) %MON extforcing_qnet_mean         =  -1.6300253082536E+01
(PID.TID 0000.0001) %MON extforcing_qnet_sd           =   1.0718286831669E+02
(PID.TID 0000.0001) %MON extforcing_qnet_del2         =   9.5402517261256E+00
(PID.TID 0000.0001) %MON extforcing_qsw_max           =   0.0000000000000E+00
(PID.TID 0000.0001) %MON extforcing_qsw_min           =   0.0000000000000E+00
(PID.TID 0000.0001) %MON extforcing_qsw_mean          =   0.0000000000000E+00
(PID.TID 0000.0001) %MON extforcing_qsw_sd            =   0.0000000000000E+00
(PID.TID 0000.0001) %MON extforcing_qsw_del2          =   0.0000000000000E+00
(PID.TID 0000.0001) %MON extforcing_empmr_max         =   0.0000000000000E+00
(PID.TID 0000.0001) %MON extforcing_empmr_min         =   0.0000000000000E+00
(PID.TID 0000.0001) %MON extforcing_empmr_mean        =   0.0000000000000E+00
(PID.TID 0000.0001) %MON extforcing_empmr_sd          =   0.0000000000000E+00
(PID.TID 0000.0001) %MON extforcing_empmr_del2        =   0.0000000000000E+00
(PID.TID 0000.0001) %MON extforcing_fu_max            =   2.7685476932675E-01
(PID.TID 0000.0001) %MON extforcing_fu_min            =  -1.6648064798210E-01
(PID.TID 0000.0001) %MON extforcing_fu_mean           =   1.7191946417504E-02
(PID.TID 0000.0001) %MON extforcing_fu_sd             =   8.7383684299335E-02
(PID.TID 0000.0001) %MON extforcing_fu_del2           =   7.6426658126318E-03
(PID.TID 0000.0001) %MON extforcing_fv_max            =   2.1957670730383E-01
(PID.TID 0000.0001) %MON extforcing_fv_min            =  -1.4687265609003E-01
(PID.TID 0000.0001) %MON extforcing_fv_mean           =  -9.7798368530548E-03
(PID.TID 0000.0001) %MON extforcing_fv_sd             =   3.7901077563595E-02
(PID.TID 0000.0001) %MON extforcing_fv_del2           =   3.5306689952309E-03
(PID.TID 0000.0001) %MON advcfl_uvel_max              =   1.5340193864767E-02
(PID.TID 0000.0001) %MON advcfl_vvel_max              =   6.4712964078220E-03
(PID.TID 0000.0001) %MON advcfl_wvel_max              =   2.1395240705673E-01
(PID.TID 0000.0001) %MON advcfl_W_hf_max              =   2.2282926730963E-01
(PID.TID 0000.0001) %MON pe_b_mean                    =   4.1766255478414E-05
(PID.TID 0000.0001) %MON ke_max                       =   2.3086198912530E-03
(PID.TID 0000.0001) %MON ke_mean                      =   1.1780794534936E-04
(PID.TID 0000.0001) %MON ke_vol                       =   1.3226782436723E+18
(PID.TID 0000.0001) %MON vort_r_min                   =  -2.8520406356788E-07
(PID.TID 0000.0001) %MON vort_r_max                   =   3.1019766474113E-07
(PID.TID 0000.0001) %MON vort_a_mean                  =  -2.5205769370296E-05
(PID.TID 0000.0001) %MON vort_a_sd                    =   7.3402476636571E-05
(PID.TID 0000.0001) %MON vort_p_mean                  =  -3.1758669528309E-05
(PID.TID 0000.0001) %MON vort_p_sd                    =   1.3126427280696E-04
(PID.TID 0000.0001) %MON surfExpan_theta_mean         =   1.6298809110765E-04
(PID.TID 0000.0001) %MON surfExpan_salt_mean          =   1.3417338272155E-05
(PID.TID 0000.0001) // =======================================================
(PID.TID 0000.0001) // End MONITOR dynamic field statistics
(PID.TID 0000.0001) // =======================================================
(PID.TID 0000.0001)  exf_GetFFieldsRec:
(PID.TID 0000.0001)  exf_GetFFieldsRec: first, changed, fac:   F   F   0.90000000E+00
(PID.TID 0000.0001)  exf_GetFFieldsRec: myiter, count0, count1:      6      1      2
(PID.TID 0000.0001)  exf_GetFFieldsRec:
(PID.TID 0000.0001)  exf_GetFFieldsRec:
(PID.TID 0000.0001)  exf_GetFFieldsRec: first, changed, fac:   F   F   0.90000000E+00
(PID.TID 0000.0001)  exf_GetFFieldsRec: myiter, count0, count1:      6      1      2
(PID.TID 0000.0001)  exf_GetFFieldsRec:
(PID.TID 0000.0001)  exf_GetFFieldsRec:
(PID.TID 0000.0001)  exf_GetFFieldsRec: first, changed, fac:   F   F   0.90000000E+00
(PID.TID 0000.0001)  exf_GetFFieldsRec: myiter, count0, count1:      6      1      2
(PID.TID 0000.0001)  exf_GetFFieldsRec:
(PID.TID 0000.0001)  exf_GetFFieldsRec:
(PID.TID 0000.0001)  exf_GetFFieldsRec: first, changed, fac:   F   F   0.90000000E+00
(PID.TID 0000.0001)  exf_GetFFieldsRec: myiter, count0, count1:      6      1      2
(PID.TID 0000.0001)  exf_GetFFieldsRec:
(PID.TID 0000.0001)  exf_GetFFieldsRec:
(PID.TID 0000.0001)  exf_GetFFieldsRec: first, changed, fac:   F   F   0.90000000E+00
(PID.TID 0000.0001)  exf_GetFFieldsRec: myiter, count0, count1:      6      1      2
(PID.TID 0000.0001)  exf_GetFFieldsRec:
(PID.TID 0000.0001) // =======================================================
(PID.TID 0000.0001) // Begin MONITOR EXF statistics
(PID.TID 0000.0001) // =======================================================
(PID.TID 0000.0001) %MON exf_tsnumber                 =                     6
(PID.TID 0000.0001) %MON exf_time_sec                 =   2.5920000000000E+05
(PID.TID 0000.0001) %MON exf_ustress_max              =   2.7735624294728E-01
(PID.TID 0000.0001) %MON exf_ustress_min              =  -1.6736929127946E-01
(PID.TID 0000.0001) %MON exf_ustress_mean             =   1.5583049908103E-02
(PID.TID 0000.0001) %MON exf_ustress_sd               =   8.8228519639807E-02
(PID.TID 0000.0001) %MON exf_ustress_del2             =   8.7945540397904E-03
(PID.TID 0000.0001) %MON exf_vstress_max              =   2.1928984429687E-01
(PID.TID 0000.0001) %MON exf_vstress_min              =  -1.7522351043299E-01
(PID.TID 0000.0001) %MON exf_vstress_mean             =  -5.3909452428025E-03
(PID.TID 0000.0001) %MON exf_vstress_sd               =   4.6702356521129E-02
(PID.TID 0000.0001) %MON exf_vstress_del2             =   5.2178878205710E-03
(PID.TID 0000.0001) %MON exf_hflux_max                =   4.3165635681152E+02
(PID.TID 0000.0001) %MON exf_hflux_min                =  -1.7930098876953E+02
(PID.TID 0000.0001) %MON exf_hflux_mean               =  -1.6257798498834E+01
(PID.TID 0000.0001) %MON exf_hflux_sd                 =   1.0664755624532E+02
(PID.TID 0000.0001) %MON exf_hflux_del2               =   9.5151582064678E+00
(PID.TID 0000.0001) %MON exf_sflux_max                =   0.0000000000000E+00
(PID.TID 0000.0001) %MON exf_sflux_min                =   0.0000000000000E+00
(PID.TID 0000.0001) %MON exf_sflux_mean               =   0.0000000000000E+00
(PID.TID 0000.0001) %MON exf_sflux_sd                 =   0.0000000000000E+00
(PID.TID 0000.0001) %MON exf_sflux_del2               =   0.0000000000000E+00
(PID.TID 0000.0001) %MON exf_wspeed_max               =   0.0000000000000E+00
(PID.TID 0000.0001) %MON exf_wspeed_min               =   0.0000000000000E+00
(PID.TID 0000.0001) %MON exf_wspeed_mean              =   0.0000000000000E+00
(PID.TID 0000.0001) %MON exf_wspeed_sd                =   0.0000000000000E+00
(PID.TID 0000.0001) %MON exf_wspeed_del2              =   0.0000000000000E+00
(PID.TID 0000.0001) %MON exf_swflux_max               =   0.0000000000000E+00
(PID.TID 0000.0001) %MON exf_swflux_min               =   0.0000000000000E+00
(PID.TID 0000.0001) %MON exf_swflux_mean              =   0.0000000000000E+00
(PID.TID 0000.0001) %MON exf_swflux_sd                =   0.0000000000000E+00
(PID.TID 0000.0001) %MON exf_swflux_del2              =   0.0000000000000E+00
(PID.TID 0000.0001) %MON exf_apressure_max            =   0.0000000000000E+00
(PID.TID 0000.0001) %MON exf_apressure_min            =   0.0000000000000E+00
(PID.TID 0000.0001) %MON exf_apressure_mean           =   0.0000000000000E+00
(PID.TID 0000.0001) %MON exf_apressure_sd             =   0.0000000000000E+00
(PID.TID 0000.0001) %MON exf_apressure_del2           =   0.0000000000000E+00
(PID.TID 0000.0001) %MON exf_climsst_max              =   2.9660122871399E+01
(PID.TID 0000.0001) %MON exf_climsst_min              =  -1.9000000000000E+00
(PID.TID 0000.0001) %MON exf_climsst_mean             =   1.8501157451499E+01
(PID.TID 0000.0001) %MON exf_climsst_sd               =   9.1772931811037E+00
(PID.TID 0000.0001) %MON exf_climsst_del2             =   2.7667796583673E-01
(PID.TID 0000.0001) %MON exf_climsss_max              =   3.7426349258423E+01
(PID.TID 0000.0001) %MON exf_climsss_min              =   2.9750314712524E+01
(PID.TID 0000.0001) %MON exf_climsss_mean             =   3.4849913100260E+01
(PID.TID 0000.0001) %MON exf_climsss_sd               =   9.6213276962661E-01
(PID.TID 0000.0001) %MON exf_climsss_del2             =   8.1003922159677E-02
(PID.TID 0000.0001) // =======================================================
(PID.TID 0000.0001) // End MONITOR EXF statistics
(PID.TID 0000.0001) // =======================================================
 cg2d: Sum(rhs),rhsMax =   4.86277684785819E-14  7.25435594916515E+00
(PID.TID 0000.0001)                    cg2d_init_res =    1.59304185376323E+00
(PID.TID 0000.0001)                       cg2d_iters =    26
(PID.TID 0000.0001)                         cg2d_res =    2.59569720820635E-14
(PID.TID 0000.0001) // =======================================================
(PID.TID 0000.0001) // Begin MONITOR dynamic field statistics
(PID.TID 0000.0001) // =======================================================
(PID.TID 0000.0001) %MON time_tsnumber                =                     7
(PID.TID 0000.0001) %MON time_secondsf                =   3.0240000000000E+05
(PID.TID 0000.0001) %MON dynstat_eta_max              =   8.3286951973082E-01
(PID.TID 0000.0001) %MON dynstat_eta_min              =  -7.0405595835505E-01
(PID.TID 0000.0001) %MON dynstat_eta_mean             =   1.4150560718998E-17
(PID.TID 0000.0001) %MON dynstat_eta_sd               =   2.0765309886955E-01
(PID.TID 0000.0001) %MON dynstat_eta_del2             =   2.7010747063856E-02
(PID.TID 0000.0001) %MON dynstat_uvel_max             =   7.6143600527723E-02
(PID.TID 0000.0001) %MON dynstat_uvel_min             =  -7.6269332509447E-02
(PID.TID 0000.0001) %MON dynstat_uvel_mean            =  -5.1837190095060E-03
(PID.TID 0000.0001) %MON dynstat_uvel_sd              =   7.8767536714660E-03
(PID.TID 0000.0001) %MON dynstat_uvel_del2            =   2.3438103416127E-03
(PID.TID 0000.0001) %MON dynstat_vvel_max             =   7.5632044988437E-02
(PID.TID 0000.0001) %MON dynstat_vvel_min             =  -6.8520084429569E-02
(PID.TID 0000.0001) %MON dynstat_vvel_mean            =   4.7949777639531E-03
(PID.TID 0000.0001) %MON dynstat_vvel_sd              =   1.4391484152405E-02
(PID.TID 0000.0001) %MON dynstat_vvel_del2            =   2.6981397992614E-03
(PID.TID 0000.0001) %MON dynstat_wvel_max             =   2.7054160704806E-04
(PID.TID 0000.0001) %MON dynstat_wvel_min             =  -2.8379211723241E-04
(PID.TID 0000.0001) %MON dynstat_wvel_mean            =   7.2810968000660E-22
(PID.TID 0000.0001) %MON dynstat_wvel_sd              =   3.3913974313986E-05
(PID.TID 0000.0001) %MON dynstat_wvel_del2            =   1.0985722641810E-05
(PID.TID 0000.0001) %MON dynstat_theta_max            =   2.9778106680796E+01
(PID.TID 0000.0001) %MON dynstat_theta_min            =  -2.0070148878827E+00
(PID.TID 0000.0001) %MON dynstat_theta_mean           =   3.6110632741877E+00
(PID.TID 0000.0001) %MON dynstat_theta_sd             =   4.3990975341107E+00
(PID.TID 0000.0001) %MON dynstat_theta_del2           =   1.4599618013309E-01
(PID.TID 0000.0001) %MON dynstat_salt_max             =   3.7443210791382E+01
(PID.TID 0000.0001) %MON dynstat_salt_min             =   2.9773810118292E+01
(PID.TID 0000.0001) %MON dynstat_salt_mean            =   3.4717273000927E+01
(PID.TID 0000.0001) %MON dynstat_salt_sd              =   2.9618011507458E-01
(PID.TID 0000.0001) %MON dynstat_salt_del2            =   2.6310287721588E-02
(PID.TID 0000.0001) %MON extforcing_qnet_max          =   4.3165635681152E+02
(PID.TID 0000.0001) %MON extforcing_qnet_min          =  -1.7930098876953E+02
(PID.TID 0000.0001) %MON extforcing_qnet_mean         =  -1.6257798498834E+01
(PID.TID 0000.0001) %MON extforcing_qnet_sd           =   1.0664755624532E+02
(PID.TID 0000.0001) %MON extforcing_qnet_del2         =   9.5151582064678E+00
(PID.TID 0000.0001) %MON extforcing_qsw_max           =   0.0000000000000E+00
(PID.TID 0000.0001) %MON extforcing_qsw_min           =   0.0000000000000E+00
(PID.TID 0000.0001) %MON extforcing_qsw_mean          =   0.0000000000000E+00
(PID.TID 0000.0001) %MON extforcing_qsw_sd            =   0.0000000000000E+00
(PID.TID 0000.0001) %MON extforcing_qsw_del2          =   0.0000000000000E+00
(PID.TID 0000.0001) %MON extforcing_empmr_max         =   0.0000000000000E+00
(PID.TID 0000.0001) %MON extforcing_empmr_min         =   0.0000000000000E+00
(PID.TID 0000.0001) %MON extforcing_empmr_mean        =   0.0000000000000E+00
(PID.TID 0000.0001) %MON extforcing_empmr_sd          =   0.0000000000000E+00
(PID.TID 0000.0001) %MON extforcing_empmr_del2        =   0.0000000000000E+00
(PID.TID 0000.0001) %MON extforcing_fu_max            =   2.7683159839362E-01
(PID.TID 0000.0001) %MON extforcing_fu_min            =  -1.6728997207247E-01
(PID.TID 0000.0001) %MON extforcing_fu_mean           =   1.7255045207188E-02
(PID.TID 0000.0001) %MON extforcing_fu_sd             =   8.7366362225534E-02
(PID.TID 0000.0001) %MON extforcing_fu_del2           =   7.6240460097332E-03
(PID.TID 0000.0001) %MON extforcing_fv_max            =   2.1830530208535E-01
(PID.TID 0000.0001) %MON extforcing_fv_min            =  -1.4625990579370E-01
(PID.TID 0000.0001) %MON extforcing_fv_mean           =  -9.7868729561630E-03
(PID.TID 0000.0001) %MON extforcing_fv_sd             =   3.7840609333047E-02
(PID.TID 0000.0001) %MON extforcing_fv_del2           =   3.5177368995745E-03
(PID.TID 0000.0001) %MON advcfl_uvel_max              =   1.7733312589472E-02
(PID.TID 0000.0001) %MON advcfl_vvel_max              =   7.3470466745424E-03
(PID.TID 0000.0001) %MON advcfl_wvel_max              =   1.8649497036866E-01
(PID.TID 0000.0001) %MON advcfl_W_hf_max              =   1.8549586797143E-01
(PID.TID 0000.0001) %MON pe_b_mean                    =   5.5176993569731E-05
(PID.TID 0000.0001) %MON ke_max                       =   2.9039616317818E-03
(PID.TID 0000.0001) %MON ke_mean                      =   1.4370001603126E-04
(PID.TID 0000.0001) %MON ke_vol                       =   1.3226782436723E+18
(PID.TID 0000.0001) %MON vort_r_min                   =  -3.1106391851966E-07
(PID.TID 0000.0001) %MON vort_r_max                   =   3.3692665997551E-07
(PID.TID 0000.0001) %MON vort_a_mean                  =  -2.5205769413635E-05
(PID.TID 0000.0001) %MON vort_a_sd                    =   7.3402294931233E-05
(PID.TID 0000.0001) %MON vort_p_mean                  =  -3.1758669582915E-05
(PID.TID 0000.0001) %MON vort_p_sd                    =   1.3126370414991E-04
(PID.TID 0000.0001) %MON surfExpan_theta_mean         =   1.6870288995678E-04
(PID.TID 0000.0001) %MON surfExpan_salt_mean          =   1.3728914324689E-05
(PID.TID 0000.0001) // =======================================================
(PID.TID 0000.0001) // End MONITOR dynamic field statistics
(PID.TID 0000.0001) // =======================================================
(PID.TID 0000.0001)  exf_GetFFieldsRec:
(PID.TID 0000.0001)  exf_GetFFieldsRec: first, changed, fac:   F   F   0.88333333E+00
(PID.TID 0000.0001)  exf_GetFFieldsRec: myiter, count0, count1:      7      1      2
(PID.TID 0000.0001)  exf_GetFFieldsRec:
(PID.TID 0000.0001)  exf_GetFFieldsRec:
(PID.TID 0000.0001)  exf_GetFFieldsRec: first, changed, fac:   F   F   0.88333333E+00
(PID.TID 0000.0001)  exf_GetFFieldsRec: myiter, count0, count1:      7      1      2
(PID.TID 0000.0001)  exf_GetFFieldsRec:
(PID.TID 0000.0001)  exf_GetFFieldsRec:
(PID.TID 0000.0001)  exf_GetFFieldsRec: first, changed, fac:   F   F   0.88333333E+00
(PID.TID 0000.0001)  exf_GetFFieldsRec: myiter, count0, count1:      7      1      2
(PID.TID 0000.0001)  exf_GetFFieldsRec:
(PID.TID 0000.0001)  exf_GetFFieldsRec:
(PID.TID 0000.0001)  exf_GetFFieldsRec: first, changed, fac:   F   F   0.88333333E+00
(PID.TID 0000.0001)  exf_GetFFieldsRec: myiter, count0, count1:      7      1      2
(PID.TID 0000.0001)  exf_GetFFieldsRec:
(PID.TID 0000.0001)  exf_GetFFieldsRec:
(PID.TID 0000.0001)  exf_GetFFieldsRec: first, changed, fac:   F   F   0.88333333E+00
(PID.TID 0000.0001)  exf_GetFFieldsRec: myiter, count0, count1:      7      1      2
(PID.TID 0000.0001)  exf_GetFFieldsRec:
(PID.TID 0000.0001) // =======================================================
(PID.TID 0000.0001) // Begin MONITOR EXF statistics
(PID.TID 0000.0001) // =======================================================
(PID.TID 0000.0001) %MON exf_tsnumber                 =                     7
(PID.TID 0000.0001) %MON exf_time_sec                 =   3.0240000000000E+05
(PID.TID 0000.0001) %MON exf_ustress_max              =   2.7739232210442E-01
(PID.TID 0000.0001) %MON exf_ustress_min              =  -1.6827468383126E-01
(PID.TID 0000.0001) %MON exf_ustress_mean             =   1.5609607268894E-02
(PID.TID 0000.0001) %MON exf_ustress_sd               =   8.8159611244110E-02
(PID.TID 0000.0001) %MON exf_ustress_del2             =   8.7738699165518E-03
(PID.TID 0000.0001) %MON exf_vstress_max              =   2.1794554541508E-01
(PID.TID 0000.0001) %MON exf_vstress_min              =  -1.7456390319082E-01
(PID.TID 0000.0001) %MON exf_vstress_mean             =  -5.4213930441585E-03
(PID.TID 0000.0001) %MON exf_vstress_sd               =   4.6557492940221E-02
(PID.TID 0000.0001) %MON exf_vstress_del2             =   5.1962948297559E-03
(PID.TID 0000.0001) %MON exf_hflux_max                =   4.2999681345622E+02
(PID.TID 0000.0001) %MON exf_hflux_min                =  -1.7918122914632E+02
(PID.TID 0000.0001) %MON exf_hflux_mean               =  -1.6215343915132E+01
(PID.TID 0000.0001) %MON exf_hflux_sd                 =   1.0611317285187E+02
(PID.TID 0000.0001) %MON exf_hflux_del2               =   9.4902334731214E+00
(PID.TID 0000.0001) %MON exf_sflux_max                =   0.0000000000000E+00
(PID.TID 0000.0001) %MON exf_sflux_min                =   0.0000000000000E+00
(PID.TID 0000.0001) %MON exf_sflux_mean               =   0.0000000000000E+00
(PID.TID 0000.0001) %MON exf_sflux_sd                 =   0.0000000000000E+00
(PID.TID 0000.0001) %MON exf_sflux_del2               =   0.0000000000000E+00
(PID.TID 0000.0001) %MON exf_wspeed_max               =   0.0000000000000E+00
(PID.TID 0000.0001) %MON exf_wspeed_min               =   0.0000000000000E+00
(PID.TID 0000.0001) %MON exf_wspeed_mean              =   0.0000000000000E+00
(PID.TID 0000.0001) %MON exf_wspeed_sd                =   0.0000000000000E+00
(PID.TID 0000.0001) %MON exf_wspeed_del2              =   0.0000000000000E+00
(PID.TID 0000.0001) %MON exf_swflux_max               =   0.0000000000000E+00
(PID.TID 0000.0001) %MON exf_swflux_min               =   0.0000000000000E+00
(PID.TID 0000.0001) %MON exf_swflux_mean              =   0.0000000000000E+00
(PID.TID 0000.0001) %MON exf_swflux_sd                =   0.0000000000000E+00
(PID.TID 0000.0001) %MON exf_swflux_del2              =   0.0000000000000E+00
(PID.TID 0000.0001) %MON exf_apressure_max            =   0.0000000000000E+00
(PID.TID 0000.0001) %MON exf_apressure_min            =   0.0000000000000E+00
(PID.TID 0000.0001) %MON exf_apressure_mean           =   0.0000000000000E+00
(PID.TID 0000.0001) %MON exf_apressure_sd             =   0.0000000000000E+00
(PID.TID 0000.0001) %MON exf_apressure_del2           =   0.0000000000000E+00
(PID.TID 0000.0001) %MON exf_climsst_max              =   2.9647911866506E+01
(PID.TID 0000.0001) %MON exf_climsst_min              =  -1.9000000000000E+00
(PID.TID 0000.0001) %MON exf_climsst_mean             =   1.8503896292700E+01
(PID.TID 0000.0001) %MON exf_climsst_sd               =   9.1769645537935E+00
(PID.TID 0000.0001) %MON exf_climsst_del2             =   2.7548894212250E-01
(PID.TID 0000.0001) %MON exf_climsss_max              =   3.7418136151632E+01
(PID.TID 0000.0001) %MON exf_climsss_min              =   2.9749905586243E+01
(PID.TID 0000.0001) %MON exf_climsss_mean             =   3.4849911071102E+01
(PID.TID 0000.0001) %MON exf_climsss_sd               =   9.6196463830167E-01
(PID.TID 0000.0001) %MON exf_climsss_del2             =   8.0522596985424E-02
(PID.TID 0000.0001) // =======================================================
(PID.TID 0000.0001) // End MONITOR EXF statistics
(PID.TID 0000.0001) // =======================================================
 cg2d: Sum(rhs),rhsMax =  -8.34887714518118E-14  7.86664767365988E+00
(PID.TID 0000.0001)                    cg2d_init_res =    1.41417660213380E+00
(PID.TID 0000.0001)                       cg2d_iters =    26
(PID.TID 0000.0001)                         cg2d_res =    2.31780735168894E-14
(PID.TID 0000.0001) // =======================================================
(PID.TID 0000.0001) // Begin MONITOR dynamic field statistics
(PID.TID 0000.0001) // =======================================================
(PID.TID 0000.0001) %MON time_tsnumber                =                     8
(PID.TID 0000.0001) %MON time_secondsf                =   3.4560000000000E+05
(PID.TID 0000.0001) %MON dynstat_eta_max              =   9.0670069781014E-01
(PID.TID 0000.0001) %MON dynstat_eta_min              =  -7.4781657663622E-01
(PID.TID 0000.0001) %MON dynstat_eta_mean             =   3.5319799554619E-17
(PID.TID 0000.0001) %MON dynstat_eta_sd               =   2.3352041031110E-01
(PID.TID 0000.0001) %MON dynstat_eta_del2             =   2.6398531124338E-02
(PID.TID 0000.0001) %MON dynstat_uvel_max             =   8.6194981421865E-02
(PID.TID 0000.0001) %MON dynstat_uvel_min             =  -9.5317683687007E-02
(PID.TID 0000.0001) %MON dynstat_uvel_mean            =  -6.1417490252782E-03
(PID.TID 0000.0001) %MON dynstat_uvel_sd              =   9.1957777144414E-03
(PID.TID 0000.0001) %MON dynstat_uvel_del2            =   2.5734936105113E-03
(PID.TID 0000.0001) %MON dynstat_vvel_max             =   8.1487637829692E-02
(PID.TID 0000.0001) %MON dynstat_vvel_min             =  -7.8031566326516E-02
(PID.TID 0000.0001) %MON dynstat_vvel_mean            =   5.0325615964510E-03
(PID.TID 0000.0001) %MON dynstat_vvel_sd              =   1.5024541786492E-02
(PID.TID 0000.0001) %MON dynstat_vvel_del2            =   2.9224489900735E-03
(PID.TID 0000.0001) %MON dynstat_wvel_max             =   2.8159130513517E-04
(PID.TID 0000.0001) %MON dynstat_wvel_min             =  -2.9815809229938E-04
(PID.TID 0000.0001) %MON dynstat_wvel_mean            =   3.7579854451954E-22
(PID.TID 0000.0001) %MON dynstat_wvel_sd              =   3.5226718858656E-05
(PID.TID 0000.0001) %MON dynstat_wvel_del2            =   1.1729328558749E-05
(PID.TID 0000.0001) %MON dynstat_theta_max            =   2.9771530436360E+01
(PID.TID 0000.0001) %MON dynstat_theta_min            =  -2.0412124807280E+00
(PID.TID 0000.0001) %MON dynstat_theta_mean           =   3.6091685296656E+00
(PID.TID 0000.0001) %MON dynstat_theta_sd             =   4.3949611470319E+00
(PID.TID 0000.0001) %MON dynstat_theta_del2           =   1.4536830488323E-01
(PID.TID 0000.0001) %MON dynstat_salt_max             =   3.7439688361873E+01
(PID.TID 0000.0001) %MON dynstat_salt_min             =   2.9776848327664E+01
(PID.TID 0000.0001) %MON dynstat_salt_mean            =   3.4717116239882E+01
(PID.TID 0000.0001) %MON dynstat_salt_sd              =   2.9618406030990E-01
(PID.TID 0000.0001) %MON dynstat_salt_del2            =   2.6264790228832E-02
(PID.TID 0000.0001) %MON extforcing_qnet_max          =   4.2999681345622E+02
(PID.TID 0000.0001) %MON extforcing_qnet_min          =  -1.7918122914632E+02
(PID.TID 0000.0001) %MON extforcing_qnet_mean         =  -1.6215343915132E+01
(PID.TID 0000.0001) %MON extforcing_qnet_sd           =   1.0611317285187E+02
(PID.TID 0000.0001) %MON extforcing_qnet_del2         =   9.4902334731214E+00
(PID.TID 0000.0001) %MON extforcing_qsw_max           =   0.0000000000000E+00
(PID.TID 0000.0001) %MON extforcing_qsw_min           =   0.0000000000000E+00
(PID.TID 0000.0001) %MON extforcing_qsw_mean          =   0.0000000000000E+00
(PID.TID 0000.0001) %MON extforcing_qsw_sd            =   0.0000000000000E+00
(PID.TID 0000.0001) %MON extforcing_qsw_del2          =   0.0000000000000E+00
(PID.TID 0000.0001) %MON extforcing_empmr_max         =   0.0000000000000E+00
(PID.TID 0000.0001) %MON extforcing_empmr_min         =   0.0000000000000E+00
(PID.TID 0000.0001) %MON extforcing_empmr_mean        =   0.0000000000000E+00
(PID.TID 0000.0001) %MON extforcing_empmr_sd          =   0.0000000000000E+00
(PID.TID 0000.0001) %MON extforcing_empmr_del2        =   0.0000000000000E+00
(PID.TID 0000.0001) %MON extforcing_fu_max            =   2.7680842746049E-01
(PID.TID 0000.0001) %MON extforcing_fu_min            =  -1.6809929616284E-01
(PID.TID 0000.0001) %MON extforcing_fu_mean           =   1.7318143996872E-02
(PID.TID 0000.0001) %MON extforcing_fu_sd             =   8.7353217413249E-02
(PID.TID 0000.0001) %MON extforcing_fu_del2           =   7.6061859271076E-03
(PID.TID 0000.0001) %MON extforcing_fv_max            =   2.1703389686688E-01
(PID.TID 0000.0001) %MON extforcing_fv_min            =  -1.4564715549738E-01
(PID.TID 0000.0001) %MON extforcing_fv_mean           =  -9.7939090592713E-03
(PID.TID 0000.0001) %MON extforcing_fv_sd             =   3.7783098669983E-02
(PID.TID 0000.0001) %MON extforcing_fv_del2           =   3.5052833522840E-03
(PID.TID 0000.0001) %MON advcfl_uvel_max              =   1.8886147403153E-02
(PID.TID 0000.0001) %MON advcfl_vvel_max              =   7.9158705628611E-03
(PID.TID 0000.0001) %MON advcfl_wvel_max              =   2.0057997844094E-01
(PID.TID 0000.0001) %MON advcfl_W_hf_max              =   2.0153156609247E-01
(PID.TID 0000.0001) %MON pe_b_mean                    =   6.9779987979832E-05
(PID.TID 0000.0001) %MON ke_max                       =   3.8921515966064E-03
(PID.TID 0000.0001) %MON ke_mean                      =   1.6826862965805E-04
(PID.TID 0000.0001) %MON ke_vol                       =   1.3226782436723E+18
(PID.TID 0000.0001) %MON vort_r_min                   =  -3.2854446820789E-07
(PID.TID 0000.0001) %MON vort_r_max                   =   3.9182729945249E-07
(PID.TID 0000.0001) %MON vort_a_mean                  =  -2.5205769482800E-05
(PID.TID 0000.0001) %MON vort_a_sd                    =   7.3402114647506E-05
(PID.TID 0000.0001) %MON vort_p_mean                  =  -3.1758669670062E-05
(PID.TID 0000.0001) %MON vort_p_sd                    =   1.3126310338999E-04
(PID.TID 0000.0001) %MON surfExpan_theta_mean         =   1.6992647770230E-04
(PID.TID 0000.0001) %MON surfExpan_salt_mean          =   1.3628762145923E-05
(PID.TID 0000.0001) // =======================================================
(PID.TID 0000.0001) // End MONITOR dynamic field statistics
(PID.TID 0000.0001) // =======================================================
(PID.TID 0000.0001)  exf_GetFFieldsRec:
(PID.TID 0000.0001)  exf_GetFFieldsRec: first, changed, fac:   F   F   0.86666667E+00
(PID.TID 0000.0001)  exf_GetFFieldsRec: myiter, count0, count1:      8      1      2
(PID.TID 0000.0001)  exf_GetFFieldsRec:
(PID.TID 0000.0001)  exf_GetFFieldsRec:
(PID.TID 0000.0001)  exf_GetFFieldsRec: first, changed, fac:   F   F   0.86666667E+00
(PID.TID 0000.0001)  exf_GetFFieldsRec: myiter, count0, count1:      8      1      2
(PID.TID 0000.0001)  exf_GetFFieldsRec:
(PID.TID 0000.0001)  exf_GetFFieldsRec:
(PID.TID 0000.0001)  exf_GetFFieldsRec: first, changed, fac:   F   F   0.86666667E+00
(PID.TID 0000.0001)  exf_GetFFieldsRec: myiter, count0, count1:      8      1      2
(PID.TID 0000.0001)  exf_GetFFieldsRec:
(PID.TID 0000.0001)  exf_GetFFieldsRec:
(PID.TID 0000.0001)  exf_GetFFieldsRec: first, changed, fac:   F   F   0.86666667E+00
(PID.TID 0000.0001)  exf_GetFFieldsRec: myiter, count0, count1:      8      1      2
(PID.TID 0000.0001)  exf_GetFFieldsRec:
(PID.TID 0000.0001)  exf_GetFFieldsRec:
(PID.TID 0000.0001)  exf_GetFFieldsRec: first, changed, fac:   F   F   0.86666667E+00
(PID.TID 0000.0001)  exf_GetFFieldsRec: myiter, count0, count1:      8      1      2
(PID.TID 0000.0001)  exf_GetFFieldsRec:
(PID.TID 0000.0001) // =======================================================
(PID.TID 0000.0001) // Begin MONITOR EXF statistics
(PID.TID 0000.0001) // =======================================================
(PID.TID 0000.0001) %MON exf_tsnumber                 =                     8
(PID.TID 0000.0001) %MON exf_time_sec                 =   3.4560000000000E+05
(PID.TID 0000.0001) %MON exf_ustress_max              =   2.7742840126157E-01
(PID.TID 0000.0001) %MON exf_ustress_min              =  -1.6918007638305E-01
(PID.TID 0000.0001) %MON exf_ustress_mean             =   1.5636164629685E-02
(PID.TID 0000.0001) %MON exf_ustress_sd               =   8.8094941063971E-02
(PID.TID 0000.0001) %MON exf_ustress_del2             =   8.7543141525422E-03
(PID.TID 0000.0001) %MON exf_vstress_max              =   2.1660124653329E-01
(PID.TID 0000.0001) %MON exf_vstress_min              =  -1.7390429594864E-01
(PID.TID 0000.0001) %MON exf_vstress_mean             =  -5.4518408455145E-03
(PID.TID 0000.0001) %MON exf_vstress_sd               =   4.6415822750960E-02
(PID.TID 0000.0001) %MON exf_vstress_del2             =   5.1756295220277E-03
(PID.TID 0000.0001) %MON exf_hflux_max                =   4.2833727010091E+02
(PID.TID 0000.0001) %MON exf_hflux_min                =  -1.7906146952311E+02
(PID.TID 0000.0001) %MON exf_hflux_mean               =  -1.6172889331431E+01
(PID.TID 0000.0001) %MON exf_hflux_sd                 =   1.0557973223764E+02
(PID.TID 0000.0001) %MON exf_hflux_del2               =   9.4654256987228E+00
(PID.TID 0000.0001) %MON exf_sflux_max                =   0.0000000000000E+00
(PID.TID 0000.0001) %MON exf_sflux_min                =   0.0000000000000E+00
(PID.TID 0000.0001) %MON exf_sflux_mean               =   0.0000000000000E+00
(PID.TID 0000.0001) %MON exf_sflux_sd                 =   0.0000000000000E+00
(PID.TID 0000.0001) %MON exf_sflux_del2               =   0.0000000000000E+00
(PID.TID 0000.0001) %MON exf_wspeed_max               =   0.0000000000000E+00
(PID.TID 0000.0001) %MON exf_wspeed_min               =   0.0000000000000E+00
(PID.TID 0000.0001) %MON exf_wspeed_mean              =   0.0000000000000E+00
(PID.TID 0000.0001) %MON exf_wspeed_sd                =   0.0000000000000E+00
(PID.TID 0000.0001) %MON exf_wspeed_del2              =   0.0000000000000E+00
(PID.TID 0000.0001) %MON exf_swflux_max               =   0.0000000000000E+00
(PID.TID 0000.0001) %MON exf_swflux_min               =   0.0000000000000E+00
(PID.TID 0000.0001) %MON exf_swflux_mean              =   0.0000000000000E+00
(PID.TID 0000.0001) %MON exf_swflux_sd                =   0.0000000000000E+00
(PID.TID 0000.0001) %MON exf_swflux_del2              =   0.0000000000000E+00
(PID.TID 0000.0001) %MON exf_apressure_max            =   0.0000000000000E+00
(PID.TID 0000.0001) %MON exf_apressure_min            =   0.0000000000000E+00
(PID.TID 0000.0001) %MON exf_apressure_mean           =   0.0000000000000E+00
(PID.TID 0000.0001) %MON exf_apressure_sd             =   0.0000000000000E+00
(PID.TID 0000.0001) %MON exf_apressure_del2           =   0.0000000000000E+00
(PID.TID 0000.0001) %MON exf_climsst_max              =   2.9635700861613E+01
(PID.TID 0000.0001) %MON exf_climsst_min              =  -1.9000000000000E+00
(PID.TID 0000.0001) %MON exf_climsst_mean             =   1.8506635133900E+01
(PID.TID 0000.0001) %MON exf_climsst_sd               =   9.1766559108170E+00
(PID.TID 0000.0001) %MON exf_climsst_del2             =   2.7432997472035E-01
(PID.TID 0000.0001) %MON exf_climsss_max              =   3.7409923044840E+01
(PID.TID 0000.0001) %MON exf_climsss_min              =   2.9749496459961E+01
(PID.TID 0000.0001) %MON exf_climsss_mean             =   3.4849909041944E+01
(PID.TID 0000.0001) %MON exf_climsss_sd               =   9.6181118429321E-01
(PID.TID 0000.0001) %MON exf_climsss_del2             =   8.0054555196741E-02
(PID.TID 0000.0001) // =======================================================
(PID.TID 0000.0001) // End MONITOR EXF statistics
(PID.TID 0000.0001) // =======================================================
 cg2d: Sum(rhs),rhsMax =  -9.99200722162641E-14  8.20332120363226E+00
(PID.TID 0000.0001)                    cg2d_init_res =    1.30539333647875E+00
(PID.TID 0000.0001)                       cg2d_iters =    25
(PID.TID 0000.0001)                         cg2d_res =    9.53764528005331E-14
(PID.TID 0000.0001) // =======================================================
(PID.TID 0000.0001) // Begin MONITOR dynamic field statistics
(PID.TID 0000.0001) // =======================================================
(PID.TID 0000.0001) %MON time_tsnumber                =                     9
(PID.TID 0000.0001) %MON time_secondsf                =   3.8880000000000E+05
(PID.TID 0000.0001) %MON dynstat_eta_max              =   9.4983627939529E-01
(PID.TID 0000.0001) %MON dynstat_eta_min              =  -8.3226084868540E-01
(PID.TID 0000.0001) %MON dynstat_eta_mean             =   1.2429852535568E-16
(PID.TID 0000.0001) %MON dynstat_eta_sd               =   2.5796473370641E-01
(PID.TID 0000.0001) %MON dynstat_eta_del2             =   2.5830173887835E-02
(PID.TID 0000.0001) %MON dynstat_uvel_max             =   9.5596393337880E-02
(PID.TID 0000.0001) %MON dynstat_uvel_min             =  -1.1177600280718E-01
(PID.TID 0000.0001) %MON dynstat_uvel_mean            =  -7.0596364453979E-03
(PID.TID 0000.0001) %MON dynstat_uvel_sd              =   1.0493797581627E-02
(PID.TID 0000.0001) %MON dynstat_uvel_del2            =   2.7774274569757E-03
(PID.TID 0000.0001) %MON dynstat_vvel_max             =   8.6621147780721E-02
(PID.TID 0000.0001) %MON dynstat_vvel_min             =  -8.6441639445996E-02
(PID.TID 0000.0001) %MON dynstat_vvel_mean            =   5.1422249121343E-03
(PID.TID 0000.0001) %MON dynstat_vvel_sd              =   1.5389290146350E-02
(PID.TID 0000.0001) %MON dynstat_vvel_del2            =   3.1027581669743E-03
(PID.TID 0000.0001) %MON dynstat_wvel_max             =   2.8592688693549E-04
(PID.TID 0000.0001) %MON dynstat_wvel_min             =  -3.0687102560301E-04
(PID.TID 0000.0001) %MON dynstat_wvel_mean            =   1.3857571329158E-21
(PID.TID 0000.0001) %MON dynstat_wvel_sd              =   3.6125477048148E-05
(PID.TID 0000.0001) %MON dynstat_wvel_del2            =   1.2240412598579E-05
(PID.TID 0000.0001) %MON dynstat_theta_max            =   2.9744994597492E+01
(PID.TID 0000.0001) %MON dynstat_theta_min            =  -2.0739940764681E+00
(PID.TID 0000.0001) %MON dynstat_theta_mean           =   3.6072906669851E+00
(PID.TID 0000.0001) %MON dynstat_theta_sd             =   4.3907257575543E+00
(PID.TID 0000.0001) %MON dynstat_theta_del2           =   1.4470239772919E-01
(PID.TID 0000.0001) %MON dynstat_salt_max             =   3.7436607477793E+01
(PID.TID 0000.0001) %MON dynstat_salt_min             =   2.9779525132835E+01
(PID.TID 0000.0001) %MON dynstat_salt_mean            =   3.4716963403836E+01
(PID.TID 0000.0001) %MON dynstat_salt_sd              =   2.9617970670009E-01
(PID.TID 0000.0001) %MON dynstat_salt_del2            =   2.6222106549029E-02
(PID.TID 0000.0001) %MON extforcing_qnet_max          =   4.2833727010091E+02
(PID.TID 0000.0001) %MON extforcing_qnet_min          =  -1.7906146952311E+02
(PID.TID 0000.0001) %MON extforcing_qnet_mean         =  -1.6172889331431E+01
(PID.TID 0000.0001) %MON extforcing_qnet_sd           =   1.0557973223764E+02
(PID.TID 0000.0001) %MON extforcing_qnet_del2         =   9.4654256987228E+00
(PID.TID 0000.0001) %MON extforcing_qsw_max           =   0.0000000000000E+00
(PID.TID 0000.0001) %MON extforcing_qsw_min           =   0.0000000000000E+00
(PID.TID 0000.0001) %MON extforcing_qsw_mean          =   0.0000000000000E+00
(PID.TID 0000.0001) %MON extforcing_qsw_sd            =   0.0000000000000E+00
(PID.TID 0000.0001) %MON extforcing_qsw_del2          =   0.0000000000000E+00
(PID.TID 0000.0001) %MON extforcing_empmr_max         =   0.0000000000000E+00
(PID.TID 0000.0001) %MON extforcing_empmr_min         =   0.0000000000000E+00
(PID.TID 0000.0001) %MON extforcing_empmr_mean        =   0.0000000000000E+00
(PID.TID 0000.0001) %MON extforcing_empmr_sd          =   0.0000000000000E+00
(PID.TID 0000.0001) %MON extforcing_empmr_del2        =   0.0000000000000E+00
(PID.TID 0000.0001) %MON extforcing_fu_max            =   2.7678525652736E-01
(PID.TID 0000.0001) %MON extforcing_fu_min            =  -1.6890862025321E-01
(PID.TID 0000.0001) %MON extforcing_fu_mean           =   1.7381242786556E-02
(PID.TID 0000.0001) %MON extforcing_fu_sd             =   8.7344251748441E-02
(PID.TID 0000.0001) %MON extforcing_fu_del2           =   7.5885924051387E-03
(PID.TID 0000.0001) %MON extforcing_fv_max            =   2.1576249164840E-01
(PID.TID 0000.0001) %MON extforcing_fv_min            =  -1.4503440520105E-01
(PID.TID 0000.0001) %MON extforcing_fv_mean           =  -9.8009451623796E-03
(PID.TID 0000.0001) %MON extforcing_fv_sd             =   3.7728559099304E-02
(PID.TID 0000.0001) %MON extforcing_fv_del2           =   3.4937463990787E-03
(PID.TID 0000.0001) %MON advcfl_uvel_max              =   1.8664172780811E-02
(PID.TID 0000.0001) %MON advcfl_vvel_max              =   8.4145498888029E-03
(PID.TID 0000.0001) %MON advcfl_wvel_max              =   2.0587516714856E-01
(PID.TID 0000.0001) %MON advcfl_W_hf_max              =   2.1267946220138E-01
(PID.TID 0000.0001) %MON pe_b_mean                    =   8.5153376962561E-05
(PID.TID 0000.0001) %MON ke_max                       =   4.8360043869194E-03
(PID.TID 0000.0001) %MON ke_mean                      =   1.9086612548679E-04
(PID.TID 0000.0001) %MON ke_vol                       =   1.3226782436723E+18
(PID.TID 0000.0001) %MON vort_r_min                   =  -3.3887913501421E-07
(PID.TID 0000.0001) %MON vort_r_max                   =   4.6065244999217E-07
(PID.TID 0000.0001) %MON vort_a_mean                  =  -2.5205769566390E-05
(PID.TID 0000.0001) %MON vort_a_sd                    =   7.3401941030567E-05
(PID.TID 0000.0001) %MON vort_p_mean                  =  -3.1758669775383E-05
(PID.TID 0000.0001) %MON vort_p_sd                    =   1.3126249032569E-04
(PID.TID 0000.0001) %MON surfExpan_theta_mean         =   1.6723095073612E-04
(PID.TID 0000.0001) %MON surfExpan_salt_mean          =   1.3163643251315E-05
(PID.TID 0000.0001) // =======================================================
(PID.TID 0000.0001) // End MONITOR dynamic field statistics
(PID.TID 0000.0001) // =======================================================
(PID.TID 0000.0001)  exf_GetFFieldsRec:
(PID.TID 0000.0001)  exf_GetFFieldsRec: first, changed, fac:   F   F   0.85000000E+00
(PID.TID 0000.0001)  exf_GetFFieldsRec: myiter, count0, count1:      9      1      2
(PID.TID 0000.0001)  exf_GetFFieldsRec:
(PID.TID 0000.0001)  exf_GetFFieldsRec:
(PID.TID 0000.0001)  exf_GetFFieldsRec: first, changed, fac:   F   F   0.85000000E+00
(PID.TID 0000.0001)  exf_GetFFieldsRec: myiter, count0, count1:      9      1      2
(PID.TID 0000.0001)  exf_GetFFieldsRec:
(PID.TID 0000.0001)  exf_GetFFieldsRec:
(PID.TID 0000.0001)  exf_GetFFieldsRec: first, changed, fac:   F   F   0.85000000E+00
(PID.TID 0000.0001)  exf_GetFFieldsRec: myiter, count0, count1:      9      1      2
(PID.TID 0000.0001)  exf_GetFFieldsRec:
(PID.TID 0000.0001)  exf_GetFFieldsRec:
(PID.TID 0000.0001)  exf_GetFFieldsRec: first, changed, fac:   F   F   0.85000000E+00
(PID.TID 0000.0001)  exf_GetFFieldsRec: myiter, count0, count1:      9      1      2
(PID.TID 0000.0001)  exf_GetFFieldsRec:
(PID.TID 0000.0001)  exf_GetFFieldsRec:
(PID.TID 0000.0001)  exf_GetFFieldsRec: first, changed, fac:   F   F   0.85000000E+00
(PID.TID 0000.0001)  exf_GetFFieldsRec: myiter, count0, count1:      9      1      2
(PID.TID 0000.0001)  exf_GetFFieldsRec:
(PID.TID 0000.0001) // =======================================================
(PID.TID 0000.0001) // Begin MONITOR EXF statistics
(PID.TID 0000.0001) // =======================================================
(PID.TID 0000.0001) %MON exf_tsnumber                 =                     9
(PID.TID 0000.0001) %MON exf_time_sec                 =   3.8880000000000E+05
(PID.TID 0000.0001) %MON exf_ustress_max              =   2.7746448041871E-01
(PID.TID 0000.0001) %MON exf_ustress_min              =  -1.7008546893485E-01
(PID.TID 0000.0001) %MON exf_ustress_mean             =   1.5662721990477E-02
(PID.TID 0000.0001) %MON exf_ustress_sd               =   8.8034518439574E-02
(PID.TID 0000.0001) %MON exf_ustress_del2             =   8.7355391344297E-03
(PID.TID 0000.0001) %MON exf_vstress_max              =   2.1525694765151E-01
(PID.TID 0000.0001) %MON exf_vstress_min              =  -1.7324468870647E-01
(PID.TID 0000.0001) %MON exf_vstress_mean             =  -5.4822886468705E-03
(PID.TID 0000.0001) %MON exf_vstress_sd               =   4.6277375281408E-02
(PID.TID 0000.0001) %MON exf_vstress_del2             =   5.1560469877082E-03
(PID.TID 0000.0001) %MON exf_hflux_max                =   4.2667772674561E+02
(PID.TID 0000.0001) %MON exf_hflux_min                =  -1.7894170989990E+02
(PID.TID 0000.0001) %MON exf_hflux_mean               =  -1.6130434747729E+01
(PID.TID 0000.0001) %MON exf_hflux_sd                 =   1.0504724876520E+02
(PID.TID 0000.0001) %MON exf_hflux_del2               =   9.4408486030587E+00
(PID.TID 0000.0001) %MON exf_sflux_max                =   0.0000000000000E+00
(PID.TID 0000.0001) %MON exf_sflux_min                =   0.0000000000000E+00
(PID.TID 0000.0001) %MON exf_sflux_mean               =   0.0000000000000E+00
(PID.TID 0000.0001) %MON exf_sflux_sd                 =   0.0000000000000E+00
(PID.TID 0000.0001) %MON exf_sflux_del2               =   0.0000000000000E+00
(PID.TID 0000.0001) %MON exf_wspeed_max               =   0.0000000000000E+00
(PID.TID 0000.0001) %MON exf_wspeed_min               =   0.0000000000000E+00
(PID.TID 0000.0001) %MON exf_wspeed_mean              =   0.0000000000000E+00
(PID.TID 0000.0001) %MON exf_wspeed_sd                =   0.0000000000000E+00
(PID.TID 0000.0001) %MON exf_wspeed_del2              =   0.0000000000000E+00
(PID.TID 0000.0001) %MON exf_swflux_max               =   0.0000000000000E+00
(PID.TID 0000.0001) %MON exf_swflux_min               =   0.0000000000000E+00
(PID.TID 0000.0001) %MON exf_swflux_mean              =   0.0000000000000E+00
(PID.TID 0000.0001) %MON exf_swflux_sd                =   0.0000000000000E+00
(PID.TID 0000.0001) %MON exf_swflux_del2              =   0.0000000000000E+00
(PID.TID 0000.0001) %MON exf_apressure_max            =   0.0000000000000E+00
(PID.TID 0000.0001) %MON exf_apressure_min            =   0.0000000000000E+00
(PID.TID 0000.0001) %MON exf_apressure_mean           =   0.0000000000000E+00
(PID.TID 0000.0001) %MON exf_apressure_sd             =   0.0000000000000E+00
(PID.TID 0000.0001) %MON exf_apressure_del2           =   0.0000000000000E+00
(PID.TID 0000.0001) %MON exf_climsst_max              =   2.9623489856720E+01
(PID.TID 0000.0001) %MON exf_climsst_min              =  -1.9000000000000E+00
(PID.TID 0000.0001) %MON exf_climsst_mean             =   1.8509373975101E+01
(PID.TID 0000.0001) %MON exf_climsst_sd               =   9.1763672541906E+00
(PID.TID 0000.0001) %MON exf_climsst_del2             =   2.7319665923423E-01
(PID.TID 0000.0001) %MON exf_climsss_max              =   3.7401709938049E+01
(PID.TID 0000.0001) %MON exf_climsss_min              =   2.9749087333679E+01
(PID.TID 0000.0001) %MON exf_climsss_mean             =   3.4849907012786E+01
(PID.TID 0000.0001) %MON exf_climsss_sd               =   9.6167241462740E-01
(PID.TID 0000.0001) %MON exf_climsss_del2             =   7.9604783336236E-02
(PID.TID 0000.0001) // =======================================================
(PID.TID 0000.0001) // End MONITOR EXF statistics
(PID.TID 0000.0001) // =======================================================
 cg2d: Sum(rhs),rhsMax =  -2.68229882749438E-13  8.30577655960120E+00
(PID.TID 0000.0001)                    cg2d_init_res =    1.24135503595502E+00
(PID.TID 0000.0001)                       cg2d_iters =    25
(PID.TID 0000.0001)                         cg2d_res =    8.87783440710996E-14
(PID.TID 0000.0001) // =======================================================
(PID.TID 0000.0001) // Begin MONITOR dynamic field statistics
(PID.TID 0000.0001) // =======================================================
(PID.TID 0000.0001) %MON time_tsnumber                =                    10
(PID.TID 0000.0001) %MON time_secondsf                =   4.3200000000000E+05
(PID.TID 0000.0001) %MON dynstat_eta_max              =   9.6681149795009E-01
(PID.TID 0000.0001) %MON dynstat_eta_min              =  -8.8611478036373E-01
(PID.TID 0000.0001) %MON dynstat_eta_mean             =   2.6806822226070E-16
(PID.TID 0000.0001) %MON dynstat_eta_sd               =   2.8067072236388E-01
(PID.TID 0000.0001) %MON dynstat_eta_del2             =   2.5159624420484E-02
(PID.TID 0000.0001) %MON dynstat_uvel_max             =   1.0438516423224E-01
(PID.TID 0000.0001) %MON dynstat_uvel_min             =  -1.2448541544145E-01
(PID.TID 0000.0001) %MON dynstat_uvel_mean            =  -7.9086286269766E-03
(PID.TID 0000.0001) %MON dynstat_uvel_sd              =   1.1741356791788E-02
(PID.TID 0000.0001) %MON dynstat_uvel_del2            =   2.9556295982094E-03
(PID.TID 0000.0001) %MON dynstat_vvel_max             =   9.6533183173324E-02
(PID.TID 0000.0001) %MON dynstat_vvel_min             =  -9.3569418143800E-02
(PID.TID 0000.0001) %MON dynstat_vvel_mean            =   5.1307019703372E-03
(PID.TID 0000.0001) %MON dynstat_vvel_sd              =   1.5524413591125E-02
(PID.TID 0000.0001) %MON dynstat_vvel_del2            =   3.2440798765325E-03
(PID.TID 0000.0001) %MON dynstat_wvel_max             =   2.8288163998005E-04
(PID.TID 0000.0001) %MON dynstat_wvel_min             =  -3.2008350370804E-04
(PID.TID 0000.0001) %MON dynstat_wvel_mean            =   1.8320179045327E-21
(PID.TID 0000.0001) %MON dynstat_wvel_sd              =   3.6570729243568E-05
(PID.TID 0000.0001) %MON dynstat_wvel_del2            =   1.2517920086886E-05
(PID.TID 0000.0001) %MON dynstat_theta_max            =   2.9708122943381E+01
(PID.TID 0000.0001) %MON dynstat_theta_min            =  -2.1029997421024E+00
(PID.TID 0000.0001) %MON dynstat_theta_mean           =   3.6054699636119E+00
(PID.TID 0000.0001) %MON dynstat_theta_sd             =   4.3864622680191E+00
(PID.TID 0000.0001) %MON dynstat_theta_del2           =   1.4405655782358E-01
(PID.TID 0000.0001) %MON dynstat_salt_max             =   3.7433884749744E+01
(PID.TID 0000.0001) %MON dynstat_salt_min             =   2.9781779406764E+01
(PID.TID 0000.0001) %MON dynstat_salt_mean            =   3.4716818288078E+01
(PID.TID 0000.0001) %MON dynstat_salt_sd              =   2.9616797540198E-01
(PID.TID 0000.0001) %MON dynstat_salt_del2            =   2.6182214338406E-02
(PID.TID 0000.0001) %MON extforcing_qnet_max          =   4.2667772674561E+02
(PID.TID 0000.0001) %MON extforcing_qnet_min          =  -1.7894170989990E+02
(PID.TID 0000.0001) %MON extforcing_qnet_mean         =  -1.6130434747729E+01
(PID.TID 0000.0001) %MON extforcing_qnet_sd           =   1.0504724876520E+02
(PID.TID 0000.0001) %MON extforcing_qnet_del2         =   9.4408486030587E+00
(PID.TID 0000.0001) %MON extforcing_qsw_max           =   0.0000000000000E+00
(PID.TID 0000.0001) %MON extforcing_qsw_min           =   0.0000000000000E+00
(PID.TID 0000.0001) %MON extforcing_qsw_mean          =   0.0000000000000E+00
(PID.TID 0000.0001) %MON extforcing_qsw_sd            =   0.0000000000000E+00
(PID.TID 0000.0001) %MON extforcing_qsw_del2          =   0.0000000000000E+00
(PID.TID 0000.0001) %MON extforcing_empmr_max         =   0.0000000000000E+00
(PID.TID 0000.0001) %MON extforcing_empmr_min         =   0.0000000000000E+00
(PID.TID 0000.0001) %MON extforcing_empmr_mean        =   0.0000000000000E+00
(PID.TID 0000.0001) %MON extforcing_empmr_sd          =   0.0000000000000E+00
(PID.TID 0000.0001) %MON extforcing_empmr_del2        =   0.0000000000000E+00
(PID.TID 0000.0001) %MON extforcing_fu_max            =   2.7676208559424E-01
(PID.TID 0000.0001) %MON extforcing_fu_min            =  -1.6971794434357E-01
(PID.TID 0000.0001) %MON extforcing_fu_mean           =   1.7444341576240E-02
(PID.TID 0000.0001) %MON extforcing_fu_sd             =   8.7339466518118E-02
(PID.TID 0000.0001) %MON extforcing_fu_del2           =   7.5715076331348E-03
(PID.TID 0000.0001) %MON extforcing_fv_max            =   2.1449108642992E-01
(PID.TID 0000.0001) %MON extforcing_fv_min            =  -1.4442165490473E-01
(PID.TID 0000.0001) %MON extforcing_fv_mean           =  -9.8079812654879E-03
(PID.TID 0000.0001) %MON extforcing_fv_sd             =   3.7677003523480E-02
(PID.TID 0000.0001) %MON extforcing_fv_del2           =   3.4828194390876E-03
(PID.TID 0000.0001) %MON advcfl_uvel_max              =   1.7189938103667E-02
(PID.TID 0000.0001) %MON advcfl_vvel_max              =   9.3774246422266E-03
(PID.TID 0000.0001) %MON advcfl_wvel_max              =   2.0140078058997E-01
(PID.TID 0000.0001) %MON advcfl_W_hf_max              =   2.0421487127304E-01
(PID.TID 0000.0001) %MON pe_b_mean                    =   1.0080345669574E-04
(PID.TID 0000.0001) %MON ke_max                       =   5.5624550832738E-03
(PID.TID 0000.0001) %MON ke_mean                      =   2.1106425706455E-04
(PID.TID 0000.0001) %MON ke_vol                       =   1.3226782436723E+18
(PID.TID 0000.0001) %MON vort_r_min                   =  -3.4854361990551E-07
(PID.TID 0000.0001) %MON vort_r_max                   =   5.1988366572033E-07
(PID.TID 0000.0001) %MON vort_a_mean                  =  -2.5205769650923E-05
(PID.TID 0000.0001) %MON vort_a_sd                    =   7.3401779065927E-05
(PID.TID 0000.0001) %MON vort_p_mean                  =  -3.1758669881893E-05
(PID.TID 0000.0001) %MON vort_p_sd                    =   1.3126188700538E-04
(PID.TID 0000.0001) %MON surfExpan_theta_mean         =   1.6122242233485E-04
(PID.TID 0000.0001) %MON surfExpan_salt_mean          =   1.2386686420132E-05
(PID.TID 0000.0001) // =======================================================
(PID.TID 0000.0001) // End MONITOR dynamic field statistics
(PID.TID 0000.0001) // =======================================================
(PID.TID 0000.0001)  exf_GetFFieldsRec:
(PID.TID 0000.0001)  exf_GetFFieldsRec: first, changed, fac:   F   F   0.83333333E+00
(PID.TID 0000.0001)  exf_GetFFieldsRec: myiter, count0, count1:     10      1      2
(PID.TID 0000.0001)  exf_GetFFieldsRec:
(PID.TID 0000.0001)  exf_GetFFieldsRec:
(PID.TID 0000.0001)  exf_GetFFieldsRec: first, changed, fac:   F   F   0.83333333E+00
(PID.TID 0000.0001)  exf_GetFFieldsRec: myiter, count0, count1:     10      1      2
(PID.TID 0000.0001)  exf_GetFFieldsRec:
(PID.TID 0000.0001)  exf_GetFFieldsRec:
(PID.TID 0000.0001)  exf_GetFFieldsRec: first, changed, fac:   F   F   0.83333333E+00
(PID.TID 0000.0001)  exf_GetFFieldsRec: myiter, count0, count1:     10      1      2
(PID.TID 0000.0001)  exf_GetFFieldsRec:
(PID.TID 0000.0001)  exf_GetFFieldsRec:
(PID.TID 0000.0001)  exf_GetFFieldsRec: first, changed, fac:   F   F   0.83333333E+00
(PID.TID 0000.0001)  exf_GetFFieldsRec: myiter, count0, count1:     10      1      2
(PID.TID 0000.0001)  exf_GetFFieldsRec:
(PID.TID 0000.0001)  exf_GetFFieldsRec:
(PID.TID 0000.0001)  exf_GetFFieldsRec: first, changed, fac:   F   F   0.83333333E+00
(PID.TID 0000.0001)  exf_GetFFieldsRec: myiter, count0, count1:     10      1      2
(PID.TID 0000.0001)  exf_GetFFieldsRec:
(PID.TID 0000.0001) // =======================================================
(PID.TID 0000.0001) // Begin MONITOR EXF statistics
(PID.TID 0000.0001) // =======================================================
(PID.TID 0000.0001) %MON exf_tsnumber                 =                    10
(PID.TID 0000.0001) %MON exf_time_sec                 =   4.3200000000000E+05
(PID.TID 0000.0001) %MON exf_ustress_max              =   2.7750055957586E-01
(PID.TID 0000.0001) %MON exf_ustress_min              =  -1.7099086148664E-01
(PID.TID 0000.0001) %MON exf_ustress_mean             =   1.5689279351268E-02
(PID.TID 0000.0001) %MON exf_ustress_sd               =   8.7978352122450E-02
(PID.TID 0000.0001) %MON exf_ustress_del2             =   8.7181016410222E-03
(PID.TID 0000.0001) %MON exf_vstress_max              =   2.1391264876972E-01
(PID.TID 0000.0001) %MON exf_vstress_min              =  -1.7258508146430E-01
(PID.TID 0000.0001) %MON exf_vstress_mean             =  -5.5127364482265E-03
(PID.TID 0000.0001) %MON exf_vstress_sd               =   4.6142179540436E-02
(PID.TID 0000.0001) %MON exf_vstress_del2             =   5.1376330846706E-03
(PID.TID 0000.0001) %MON exf_hflux_max                =   4.2501818339030E+02
(PID.TID 0000.0001) %MON exf_hflux_min                =  -1.7882195027669E+02
(PID.TID 0000.0001) %MON exf_hflux_mean               =  -1.6087980164027E+01
(PID.TID 0000.0001) %MON exf_hflux_sd                 =   1.0451573706380E+02
(PID.TID 0000.0001) %MON exf_hflux_del2               =   9.4163396173175E+00
(PID.TID 0000.0001) %MON exf_sflux_max                =   0.0000000000000E+00
(PID.TID 0000.0001) %MON exf_sflux_min                =   0.0000000000000E+00
(PID.TID 0000.0001) %MON exf_sflux_mean               =   0.0000000000000E+00
(PID.TID 0000.0001) %MON exf_sflux_sd                 =   0.0000000000000E+00
(PID.TID 0000.0001) %MON exf_sflux_del2               =   0.0000000000000E+00
(PID.TID 0000.0001) %MON exf_wspeed_max               =   0.0000000000000E+00
(PID.TID 0000.0001) %MON exf_wspeed_min               =   0.0000000000000E+00
(PID.TID 0000.0001) %MON exf_wspeed_mean              =   0.0000000000000E+00
(PID.TID 0000.0001) %MON exf_wspeed_sd                =   0.0000000000000E+00
(PID.TID 0000.0001) %MON exf_wspeed_del2              =   0.0000000000000E+00
(PID.TID 0000.0001) %MON exf_swflux_max               =   0.0000000000000E+00
(PID.TID 0000.0001) %MON exf_swflux_min               =   0.0000000000000E+00
(PID.TID 0000.0001) %MON exf_swflux_mean              =   0.0000000000000E+00
(PID.TID 0000.0001) %MON exf_swflux_sd                =   0.0000000000000E+00
(PID.TID 0000.0001) %MON exf_swflux_del2              =   0.0000000000000E+00
(PID.TID 0000.0001) %MON exf_apressure_max            =   0.0000000000000E+00
(PID.TID 0000.0001) %MON exf_apressure_min            =   0.0000000000000E+00
(PID.TID 0000.0001) %MON exf_apressure_mean           =   0.0000000000000E+00
(PID.TID 0000.0001) %MON exf_apressure_sd             =   0.0000000000000E+00
(PID.TID 0000.0001) %MON exf_apressure_del2           =   0.0000000000000E+00
(PID.TID 0000.0001) %MON exf_climsst_max              =   2.9611278851827E+01
(PID.TID 0000.0001) %MON exf_climsst_min              =  -1.9000000000000E+00
(PID.TID 0000.0001) %MON exf_climsst_mean             =   1.8512115367255E+01
(PID.TID 0000.0001) %MON exf_climsst_sd               =   9.1760929130452E+00
(PID.TID 0000.0001) %MON exf_climsst_del2             =   2.7209895137408E-01
(PID.TID 0000.0001) %MON exf_climsss_max              =   3.7393496831258E+01
(PID.TID 0000.0001) %MON exf_climsss_min              =   2.9748678207397E+01
(PID.TID 0000.0001) %MON exf_climsss_mean             =   3.4849904983628E+01
(PID.TID 0000.0001) %MON exf_climsss_sd               =   9.6154833566193E-01
(PID.TID 0000.0001) %MON exf_climsss_del2             =   7.9172218644078E-02
(PID.TID 0000.0001) // =======================================================
(PID.TID 0000.0001) // End MONITOR EXF statistics
(PID.TID 0000.0001) // =======================================================
 cg2d: Sum(rhs),rhsMax =  -4.92939022933570E-13  8.24261791879602E+00
(PID.TID 0000.0001)                    cg2d_init_res =    1.20441235256525E+00
(PID.TID 0000.0001)                       cg2d_iters =    25
(PID.TID 0000.0001)                         cg2d_res =    8.45215801219527E-14
(PID.TID 0000.0001) // =======================================================
(PID.TID 0000.0001) // Begin MONITOR dynamic field statistics
(PID.TID 0000.0001) // =======================================================
(PID.TID 0000.0001) %MON time_tsnumber                =                    11
(PID.TID 0000.0001) %MON time_secondsf                =   4.7520000000000E+05
(PID.TID 0000.0001) %MON dynstat_eta_max              =   9.6468749403532E-01
(PID.TID 0000.0001) %MON dynstat_eta_min              =  -9.1682843038309E-01
(PID.TID 0000.0001) %MON dynstat_eta_mean             =   3.7266916709553E-16
(PID.TID 0000.0001) %MON dynstat_eta_sd               =   3.0134742940735E-01
(PID.TID 0000.0001) %MON dynstat_eta_del2             =   2.4460012566899E-02
(PID.TID 0000.0001) %MON dynstat_uvel_max             =   1.1257076476186E-01
(PID.TID 0000.0001) %MON dynstat_uvel_min             =  -1.3282469146711E-01
(PID.TID 0000.0001) %MON dynstat_uvel_mean            =  -8.6630046001692E-03
(PID.TID 0000.0001) %MON dynstat_uvel_sd              =   1.2913459579065E-02
(PID.TID 0000.0001) %MON dynstat_uvel_del2            =   3.1101116873948E-03
(PID.TID 0000.0001) %MON dynstat_vvel_max             =   1.0419140341146E-01
(PID.TID 0000.0001) %MON dynstat_vvel_min             =  -9.9193204101852E-02
(PID.TID 0000.0001) %MON dynstat_vvel_mean            =   5.0096386254045E-03
(PID.TID 0000.0001) %MON dynstat_vvel_sd              =   1.5475100543169E-02
(PID.TID 0000.0001) %MON dynstat_vvel_del2            =   3.3503489810942E-03
(PID.TID 0000.0001) %MON dynstat_wvel_max             =   2.7566435475274E-04
(PID.TID 0000.0001) %MON dynstat_wvel_min             =  -3.4147693404787E-04
(PID.TID 0000.0001) %MON dynstat_wvel_mean            =   4.6974818064942E-23
(PID.TID 0000.0001) %MON dynstat_wvel_sd              =   3.6575784608903E-05
(PID.TID 0000.0001) %MON dynstat_wvel_del2            =   1.2587087897984E-05
(PID.TID 0000.0001) %MON dynstat_theta_max            =   2.9670420432962E+01
(PID.TID 0000.0001) %MON dynstat_theta_min            =  -2.1265337274367E+00
(PID.TID 0000.0001) %MON dynstat_theta_mean           =   3.6037396174646E+00
(PID.TID 0000.0001) %MON dynstat_theta_sd             =   4.3822332056905E+00
(PID.TID 0000.0001) %MON dynstat_theta_del2           =   1.4343991813705E-01
(PID.TID 0000.0001) %MON dynstat_salt_max             =   3.7431446590639E+01
(PID.TID 0000.0001) %MON dynstat_salt_min             =   2.9783579491518E+01
(PID.TID 0000.0001) %MON dynstat_salt_mean            =   3.4716684044307E+01
(PID.TID 0000.0001) %MON dynstat_salt_sd              =   2.9614981787347E-01
(PID.TID 0000.0001) %MON dynstat_salt_del2            =   2.6147538523360E-02
(PID.TID 0000.0001) %MON extforcing_qnet_max          =   4.2501818339030E+02
(PID.TID 0000.0001) %MON extforcing_qnet_min          =  -1.7882195027669E+02
(PID.TID 0000.0001) %MON extforcing_qnet_mean         =  -1.6087980164027E+01
(PID.TID 0000.0001) %MON extforcing_qnet_sd           =   1.0451573706380E+02
(PID.TID 0000.0001) %MON extforcing_qnet_del2         =   9.4163396173175E+00
(PID.TID 0000.0001) %MON extforcing_qsw_max           =   0.0000000000000E+00
(PID.TID 0000.0001) %MON extforcing_qsw_min           =   0.0000000000000E+00
(PID.TID 0000.0001) %MON extforcing_qsw_mean          =   0.0000000000000E+00
(PID.TID 0000.0001) %MON extforcing_qsw_sd            =   0.0000000000000E+00
(PID.TID 0000.0001) %MON extforcing_qsw_del2          =   0.0000000000000E+00
(PID.TID 0000.0001) %MON extforcing_empmr_max         =   0.0000000000000E+00
(PID.TID 0000.0001) %MON extforcing_empmr_min         =   0.0000000000000E+00
(PID.TID 0000.0001) %MON extforcing_empmr_mean        =   0.0000000000000E+00
(PID.TID 0000.0001) %MON extforcing_empmr_sd          =   0.0000000000000E+00
(PID.TID 0000.0001) %MON extforcing_empmr_del2        =   0.0000000000000E+00
(PID.TID 0000.0001) %MON extforcing_fu_max            =   2.7673891466111E-01
(PID.TID 0000.0001) %MON extforcing_fu_min            =  -1.7052726843394E-01
(PID.TID 0000.0001) %MON extforcing_fu_mean           =   1.7507440365924E-02
(PID.TID 0000.0001) %MON extforcing_fu_sd             =   8.7338862409407E-02
(PID.TID 0000.0001) %MON extforcing_fu_del2           =   7.5558227423881E-03
(PID.TID 0000.0001) %MON extforcing_fv_max            =   2.1321968121144E-01
(PID.TID 0000.0001) %MON extforcing_fv_min            =  -1.4380890460840E-01
(PID.TID 0000.0001) %MON extforcing_fv_mean           =  -9.8150173685962E-03
(PID.TID 0000.0001) %MON extforcing_fv_sd             =   3.7628444207828E-02
(PID.TID 0000.0001) %MON extforcing_fv_del2           =   3.4728483169869E-03
(PID.TID 0000.0001) %MON advcfl_uvel_max              =   1.7364559340170E-02
(PID.TID 0000.0001) %MON advcfl_vvel_max              =   1.0121359326818E-02
(PID.TID 0000.0001) %MON advcfl_wvel_max              =   1.9689305419609E-01
(PID.TID 0000.0001) %MON advcfl_W_hf_max              =   1.9059620759324E-01
(PID.TID 0000.0001) %MON pe_b_mean                    =   1.1620269019203E-04
(PID.TID 0000.0001) %MON ke_max                       =   6.5413789023448E-03
(PID.TID 0000.0001) %MON ke_mean                      =   2.2863512381117E-04
(PID.TID 0000.0001) %MON ke_vol                       =   1.3226782436723E+18
(PID.TID 0000.0001) %MON vort_r_min                   =  -3.5250300862056E-07
(PID.TID 0000.0001) %MON vort_r_max                   =   5.6640632519506E-07
(PID.TID 0000.0001) %MON vort_a_mean                  =  -2.5205769724148E-05
(PID.TID 0000.0001) %MON vort_a_sd                    =   7.3401633324069E-05
(PID.TID 0000.0001) %MON vort_p_mean                  =  -3.1758669974154E-05
(PID.TID 0000.0001) %MON vort_p_sd                    =   1.3126131760062E-04
(PID.TID 0000.0001) %MON surfExpan_theta_mean         =   1.5250107550030E-04
(PID.TID 0000.0001) %MON surfExpan_salt_mean          =   1.1358622533669E-05
(PID.TID 0000.0001) // =======================================================
(PID.TID 0000.0001) // End MONITOR dynamic field statistics
(PID.TID 0000.0001) // =======================================================
 Computing Diagnostic # 176  EXFtaux      Counter:       1   Parms: SU      U1      
 Computing Diagnostic # 177  EXFtauy      Counter:       1   Parms: SV      U1      
 Computing Diagnostic # 175  EXFqnet      Counter:       1   Parms: SM      U1      
 Computing Diagnostic # 186  EXFempmr     Counter:       1   Parms: SM      U1      
 Computing Diagnostic #  27  SALT         Counter:       1   Parms: SM      MR      
 Computing Diagnostic #  26  THETA        Counter:       1   Parms: SM      MR      
 Computing Diagnostic #  30  UVEL         Counter:       1   Parms: UU   031MR      
           Vector  Mate for  UVEL         Diagnostic #  31  VVEL     exists 
 Computing Diagnostic #  31  VVEL         Counter:       1   Parms: VV   030MR      
           Vector  Mate for  VVEL         Diagnostic #  30  UVEL     exists 
(PID.TID 0000.0001)  exf_GetFFieldsRec:
(PID.TID 0000.0001)  exf_GetFFieldsRec: first, changed, fac:   F   F   0.81666667E+00
(PID.TID 0000.0001)  exf_GetFFieldsRec: myiter, count0, count1:     11      1      2
(PID.TID 0000.0001)  exf_GetFFieldsRec:
(PID.TID 0000.0001)  exf_GetFFieldsRec:
(PID.TID 0000.0001)  exf_GetFFieldsRec: first, changed, fac:   F   F   0.81666667E+00
(PID.TID 0000.0001)  exf_GetFFieldsRec: myiter, count0, count1:     11      1      2
(PID.TID 0000.0001)  exf_GetFFieldsRec:
(PID.TID 0000.0001)  exf_GetFFieldsRec:
(PID.TID 0000.0001)  exf_GetFFieldsRec: first, changed, fac:   F   F   0.81666667E+00
(PID.TID 0000.0001)  exf_GetFFieldsRec: myiter, count0, count1:     11      1      2
(PID.TID 0000.0001)  exf_GetFFieldsRec:
(PID.TID 0000.0001)  exf_GetFFieldsRec:
(PID.TID 0000.0001)  exf_GetFFieldsRec: first, changed, fac:   F   F   0.81666667E+00
(PID.TID 0000.0001)  exf_GetFFieldsRec: myiter, count0, count1:     11      1      2
(PID.TID 0000.0001)  exf_GetFFieldsRec:
(PID.TID 0000.0001)  exf_GetFFieldsRec:
(PID.TID 0000.0001)  exf_GetFFieldsRec: first, changed, fac:   F   F   0.81666667E+00
(PID.TID 0000.0001)  exf_GetFFieldsRec: myiter, count0, count1:     11      1      2
(PID.TID 0000.0001)  exf_GetFFieldsRec:
(PID.TID 0000.0001) // =======================================================
(PID.TID 0000.0001) // Begin MONITOR EXF statistics
(PID.TID 0000.0001) // =======================================================
(PID.TID 0000.0001) %MON exf_tsnumber                 =                    11
(PID.TID 0000.0001) %MON exf_time_sec                 =   4.7520000000000E+05
(PID.TID 0000.0001) %MON exf_ustress_max              =   2.7753663873300E-01
(PID.TID 0000.0001) %MON exf_ustress_min              =  -1.7189625403844E-01
(PID.TID 0000.0001) %MON exf_ustress_mean             =   1.5715836712060E-02
(PID.TID 0000.0001) %MON exf_ustress_sd               =   8.7926450269229E-02
(PID.TID 0000.0001) %MON exf_ustress_del2             =   8.7016588251009E-03
(PID.TID 0000.0001) %MON exf_vstress_max              =   2.1256834988793E-01
(PID.TID 0000.0001) %MON exf_vstress_min              =  -1.7192547422213E-01
(PID.TID 0000.0001) %MON exf_vstress_mean             =  -5.5431842495825E-03
(PID.TID 0000.0001) %MON exf_vstress_sd               =   4.6010264192516E-02
(PID.TID 0000.0001) %MON exf_vstress_del2             =   5.1199871256069E-03
(PID.TID 0000.0001) %MON exf_hflux_max                =   4.2335864003499E+02
(PID.TID 0000.0001) %MON exf_hflux_min                =  -1.7870219065348E+02
(PID.TID 0000.0001) %MON exf_hflux_mean               =  -1.6045525580326E+01
(PID.TID 0000.0001) %MON exf_hflux_sd                 =   1.0398521203483E+02
(PID.TID 0000.0001) %MON exf_hflux_del2               =   9.3920069368459E+00
(PID.TID 0000.0001) %MON exf_sflux_max                =   0.0000000000000E+00
(PID.TID 0000.0001) %MON exf_sflux_min                =   0.0000000000000E+00
(PID.TID 0000.0001) %MON exf_sflux_mean               =   0.0000000000000E+00
(PID.TID 0000.0001) %MON exf_sflux_sd                 =   0.0000000000000E+00
(PID.TID 0000.0001) %MON exf_sflux_del2               =   0.0000000000000E+00
(PID.TID 0000.0001) %MON exf_wspeed_max               =   0.0000000000000E+00
(PID.TID 0000.0001) %MON exf_wspeed_min               =   0.0000000000000E+00
(PID.TID 0000.0001) %MON exf_wspeed_mean              =   0.0000000000000E+00
(PID.TID 0000.0001) %MON exf_wspeed_sd                =   0.0000000000000E+00
(PID.TID 0000.0001) %MON exf_wspeed_del2              =   0.0000000000000E+00
(PID.TID 0000.0001) %MON exf_swflux_max               =   0.0000000000000E+00
(PID.TID 0000.0001) %MON exf_swflux_min               =   0.0000000000000E+00
(PID.TID 0000.0001) %MON exf_swflux_mean              =   0.0000000000000E+00
(PID.TID 0000.0001) %MON exf_swflux_sd                =   0.0000000000000E+00
(PID.TID 0000.0001) %MON exf_swflux_del2              =   0.0000000000000E+00
(PID.TID 0000.0001) %MON exf_apressure_max            =   0.0000000000000E+00
(PID.TID 0000.0001) %MON exf_apressure_min            =   0.0000000000000E+00
(PID.TID 0000.0001) %MON exf_apressure_mean           =   0.0000000000000E+00
(PID.TID 0000.0001) %MON exf_apressure_sd             =   0.0000000000000E+00
(PID.TID 0000.0001) %MON exf_apressure_del2           =   0.0000000000000E+00
(PID.TID 0000.0001) %MON exf_climsst_max              =   2.9599067846934E+01
(PID.TID 0000.0001) %MON exf_climsst_min              =  -1.9000000000000E+00
(PID.TID 0000.0001) %MON exf_climsst_mean             =   1.8514857974702E+01
(PID.TID 0000.0001) %MON exf_climsst_sd               =   9.1758358636898E+00
(PID.TID 0000.0001) %MON exf_climsst_del2             =   2.7104224799419E-01
(PID.TID 0000.0001) %MON exf_climsss_max              =   3.7385283724467E+01
(PID.TID 0000.0001) %MON exf_climsss_min              =   2.9748269081116E+01
(PID.TID 0000.0001) %MON exf_climsss_mean             =   3.4849902954470E+01
(PID.TID 0000.0001) %MON exf_climsss_sd               =   9.6143895308455E-01
(PID.TID 0000.0001) %MON exf_climsss_del2             =   7.8756587967073E-02
(PID.TID 0000.0001) // =======================================================
(PID.TID 0000.0001) // End MONITOR EXF statistics
(PID.TID 0000.0001) // =======================================================
 cg2d: Sum(rhs),rhsMax =  -7.21200876796502E-13  8.10978249035687E+00
(PID.TID 0000.0001)                    cg2d_init_res =    1.17902913257905E+00
(PID.TID 0000.0001)                       cg2d_iters =    25
(PID.TID 0000.0001)                         cg2d_res =    8.13238856682251E-14
(PID.TID 0000.0001) // =======================================================
(PID.TID 0000.0001) // Begin MONITOR dynamic field statistics
(PID.TID 0000.0001) // =======================================================
(PID.TID 0000.0001) %MON time_tsnumber                =                    12
(PID.TID 0000.0001) %MON time_secondsf                =   5.1840000000000E+05
(PID.TID 0000.0001) %MON dynstat_eta_max              =   9.9580904132275E-01
(PID.TID 0000.0001) %MON dynstat_eta_min              =  -1.0096319526609E+00
(PID.TID 0000.0001) %MON dynstat_eta_mean             =   4.1342278196624E-16
(PID.TID 0000.0001) %MON dynstat_eta_sd               =   3.1975551396206E-01
(PID.TID 0000.0001) %MON dynstat_eta_del2             =   2.3705099943918E-02
(PID.TID 0000.0001) %MON dynstat_uvel_max             =   1.2013541442716E-01
(PID.TID 0000.0001) %MON dynstat_uvel_min             =  -1.3665087201767E-01
(PID.TID 0000.0001) %MON dynstat_uvel_mean            =  -9.3010996263014E-03
(PID.TID 0000.0001) %MON dynstat_uvel_sd              =   1.3990630445326E-02
(PID.TID 0000.0001) %MON dynstat_uvel_del2            =   3.2397739807352E-03
(PID.TID 0000.0001) %MON dynstat_vvel_max             =   1.0928249793309E-01
(PID.TID 0000.0001) %MON dynstat_vvel_min             =  -1.0309117761866E-01
(PID.TID 0000.0001) %MON dynstat_vvel_mean            =   4.7951319280251E-03
(PID.TID 0000.0001) %MON dynstat_vvel_sd              =   1.5290712707367E-02
(PID.TID 0000.0001) %MON dynstat_vvel_del2            =   3.4229173580945E-03
(PID.TID 0000.0001) %MON dynstat_wvel_max             =   2.6656836012100E-04
(PID.TID 0000.0001) %MON dynstat_wvel_min             =  -3.5745663454322E-04
(PID.TID 0000.0001) %MON dynstat_wvel_mean            =   7.9857190710402E-22
(PID.TID 0000.0001) %MON dynstat_wvel_sd              =   3.6192149900155E-05
(PID.TID 0000.0001) %MON dynstat_wvel_del2            =   1.2477327717174E-05
(PID.TID 0000.0001) %MON dynstat_theta_max            =   2.9636410195194E+01
(PID.TID 0000.0001) %MON dynstat_theta_min            =  -2.1438734927418E+00
(PID.TID 0000.0001) %MON dynstat_theta_mean           =   3.6021260986836E+00
(PID.TID 0000.0001) %MON dynstat_theta_sd             =   4.3780935372503E+00
(PID.TID 0000.0001) %MON dynstat_theta_del2           =   1.4287085903016E-01
(PID.TID 0000.0001) %MON dynstat_salt_max             =   3.7429229969608E+01
(PID.TID 0000.0001) %MON dynstat_salt_min             =   2.9784922290541E+01
(PID.TID 0000.0001) %MON dynstat_salt_mean            =   3.4716563088860E+01
(PID.TID 0000.0001) %MON dynstat_salt_sd              =   2.9612599955348E-01
(PID.TID 0000.0001) %MON dynstat_salt_del2            =   2.6119183913356E-02
(PID.TID 0000.0001) %MON extforcing_qnet_max          =   4.2335864003499E+02
(PID.TID 0000.0001) %MON extforcing_qnet_min          =  -1.7870219065348E+02
(PID.TID 0000.0001) %MON extforcing_qnet_mean         =  -1.6045525580326E+01
(PID.TID 0000.0001) %MON extforcing_qnet_sd           =   1.0398521203483E+02
(PID.TID 0000.0001) %MON extforcing_qnet_del2         =   9.3920069368459E+00
(PID.TID 0000.0001) %MON extforcing_qsw_max           =   0.0000000000000E+00
(PID.TID 0000.0001) %MON extforcing_qsw_min           =   0.0000000000000E+00
(PID.TID 0000.0001) %MON extforcing_qsw_mean          =   0.0000000000000E+00
(PID.TID 0000.0001) %MON extforcing_qsw_sd            =   0.0000000000000E+00
(PID.TID 0000.0001) %MON extforcing_qsw_del2          =   0.0000000000000E+00
(PID.TID 0000.0001) %MON extforcing_empmr_max         =   0.0000000000000E+00
(PID.TID 0000.0001) %MON extforcing_empmr_min         =   0.0000000000000E+00
(PID.TID 0000.0001) %MON extforcing_empmr_mean        =   0.0000000000000E+00
(PID.TID 0000.0001) %MON extforcing_empmr_sd          =   0.0000000000000E+00
(PID.TID 0000.0001) %MON extforcing_empmr_del2        =   0.0000000000000E+00
(PID.TID 0000.0001) %MON extforcing_fu_max            =   2.7671574372798E-01
(PID.TID 0000.0001) %MON extforcing_fu_min            =  -1.7133659252431E-01
(PID.TID 0000.0001) %MON extforcing_fu_mean           =   1.7570539155608E-02
(PID.TID 0000.0001) %MON extforcing_fu_sd             =   8.7342439509066E-02
(PID.TID 0000.0001) %MON extforcing_fu_del2           =   7.5415301963525E-03
(PID.TID 0000.0001) %MON extforcing_fv_max            =   2.1194827599296E-01
(PID.TID 0000.0001) %MON extforcing_fv_min            =  -1.4319615431208E-01
(PID.TID 0000.0001) %MON extforcing_fv_mean           =  -9.8220534717045E-03
(PID.TID 0000.0001) %MON extforcing_fv_sd             =   3.7582892766384E-02
(PID.TID 0000.0001) %MON extforcing_fv_del2           =   3.4635379706422E-03
(PID.TID 0000.0001) %MON advcfl_uvel_max              =   2.1329215879489E-02
(PID.TID 0000.0001) %MON advcfl_vvel_max              =   1.0615918333925E-02
(PID.TID 0000.0001) %MON advcfl_wvel_max              =   2.0106715718652E-01
(PID.TID 0000.0001) %MON advcfl_W_hf_max              =   1.7493470229201E-01
(PID.TID 0000.0001) %MON pe_b_mean                    =   1.3083299546253E-04
(PID.TID 0000.0001) %MON ke_max                       =   7.5400880769290E-03
(PID.TID 0000.0001) %MON ke_mean                      =   2.4351803842179E-04
(PID.TID 0000.0001) %MON ke_vol                       =   1.3226782436723E+18
(PID.TID 0000.0001) %MON vort_r_min                   =  -3.4270232739271E-07
(PID.TID 0000.0001) %MON vort_r_max                   =   5.9795736942068E-07
(PID.TID 0000.0001) %MON vort_a_mean                  =  -2.5205769776856E-05
(PID.TID 0000.0001) %MON vort_a_sd                    =   7.3401507774572E-05
(PID.TID 0000.0001) %MON vort_p_mean                  =  -3.1758670040564E-05
(PID.TID 0000.0001) %MON vort_p_sd                    =   1.3126080687556E-04
(PID.TID 0000.0001) %MON surfExpan_theta_mean         =   1.4165121285524E-04
(PID.TID 0000.0001) %MON surfExpan_salt_mean          =   1.0147410929371E-05
(PID.TID 0000.0001) // =======================================================
(PID.TID 0000.0001) // End MONITOR dynamic field statistics
(PID.TID 0000.0001) // =======================================================
(PID.TID 0000.0001)  exf_GetFFieldsRec:
(PID.TID 0000.0001)  exf_GetFFieldsRec: first, changed, fac:   F   F   0.80000000E+00
(PID.TID 0000.0001)  exf_GetFFieldsRec: myiter, count0, count1:     12      1      2
(PID.TID 0000.0001)  exf_GetFFieldsRec:
(PID.TID 0000.0001)  exf_GetFFieldsRec:
(PID.TID 0000.0001)  exf_GetFFieldsRec: first, changed, fac:   F   F   0.80000000E+00
(PID.TID 0000.0001)  exf_GetFFieldsRec: myiter, count0, count1:     12      1      2
(PID.TID 0000.0001)  exf_GetFFieldsRec:
(PID.TID 0000.0001)  exf_GetFFieldsRec:
(PID.TID 0000.0001)  exf_GetFFieldsRec: first, changed, fac:   F   F   0.80000000E+00
(PID.TID 0000.0001)  exf_GetFFieldsRec: myiter, count0, count1:     12      1      2
(PID.TID 0000.0001)  exf_GetFFieldsRec:
(PID.TID 0000.0001)  exf_GetFFieldsRec:
(PID.TID 0000.0001)  exf_GetFFieldsRec: first, changed, fac:   F   F   0.80000000E+00
(PID.TID 0000.0001)  exf_GetFFieldsRec: myiter, count0, count1:     12      1      2
(PID.TID 0000.0001)  exf_GetFFieldsRec:
(PID.TID 0000.0001)  exf_GetFFieldsRec:
(PID.TID 0000.0001)  exf_GetFFieldsRec: first, changed, fac:   F   F   0.80000000E+00
(PID.TID 0000.0001)  exf_GetFFieldsRec: myiter, count0, count1:     12      1      2
(PID.TID 0000.0001)  exf_GetFFieldsRec:
(PID.TID 0000.0001) // =======================================================
(PID.TID 0000.0001) // Begin MONITOR EXF statistics
(PID.TID 0000.0001) // =======================================================
(PID.TID 0000.0001) %MON exf_tsnumber                 =                    12
(PID.TID 0000.0001) %MON exf_time_sec                 =   5.1840000000000E+05
(PID.TID 0000.0001) %MON exf_ustress_max              =   2.7757271789014E-01
(PID.TID 0000.0001) %MON exf_ustress_min              =  -1.7280164659023E-01
(PID.TID 0000.0001) %MON exf_ustress_mean             =   1.5742394072851E-02
(PID.TID 0000.0001) %MON exf_ustress_sd               =   8.7878820435778E-02
(PID.TID 0000.0001) %MON exf_ustress_del2             =   8.6863845732463E-03
(PID.TID 0000.0001) %MON exf_vstress_max              =   2.1122405100614E-01
(PID.TID 0000.0001) %MON exf_vstress_min              =  -1.7126586697996E-01
(PID.TID 0000.0001) %MON exf_vstress_mean             =  -5.5736320509385E-03
(PID.TID 0000.0001) %MON exf_vstress_sd               =   4.5881657532246E-02
(PID.TID 0000.0001) %MON exf_vstress_del2             =   5.1037077590932E-03
(PID.TID 0000.0001) %MON exf_hflux_max                =   4.2169909667969E+02
(PID.TID 0000.0001) %MON exf_hflux_min                =  -1.7858243103027E+02
(PID.TID 0000.0001) %MON exf_hflux_mean               =  -1.6003070996624E+01
(PID.TID 0000.0001) %MON exf_hflux_sd                 =   1.0345568885738E+02
(PID.TID 0000.0001) %MON exf_hflux_del2               =   9.3678611333195E+00
(PID.TID 0000.0001) %MON exf_sflux_max                =   0.0000000000000E+00
(PID.TID 0000.0001) %MON exf_sflux_min                =   0.0000000000000E+00
(PID.TID 0000.0001) %MON exf_sflux_mean               =   0.0000000000000E+00
(PID.TID 0000.0001) %MON exf_sflux_sd                 =   0.0000000000000E+00
(PID.TID 0000.0001) %MON exf_sflux_del2               =   0.0000000000000E+00
(PID.TID 0000.0001) %MON exf_wspeed_max               =   0.0000000000000E+00
(PID.TID 0000.0001) %MON exf_wspeed_min               =   0.0000000000000E+00
(PID.TID 0000.0001) %MON exf_wspeed_mean              =   0.0000000000000E+00
(PID.TID 0000.0001) %MON exf_wspeed_sd                =   0.0000000000000E+00
(PID.TID 0000.0001) %MON exf_wspeed_del2              =   0.0000000000000E+00
(PID.TID 0000.0001) %MON exf_swflux_max               =   0.0000000000000E+00
(PID.TID 0000.0001) %MON exf_swflux_min               =   0.0000000000000E+00
(PID.TID 0000.0001) %MON exf_swflux_mean              =   0.0000000000000E+00
(PID.TID 0000.0001) %MON exf_swflux_sd                =   0.0000000000000E+00
(PID.TID 0000.0001) %MON exf_swflux_del2              =   0.0000000000000E+00
(PID.TID 0000.0001) %MON exf_apressure_max            =   0.0000000000000E+00
(PID.TID 0000.0001) %MON exf_apressure_min            =   0.0000000000000E+00
(PID.TID 0000.0001) %MON exf_apressure_mean           =   0.0000000000000E+00
(PID.TID 0000.0001) %MON exf_apressure_sd             =   0.0000000000000E+00
(PID.TID 0000.0001) %MON exf_apressure_del2           =   0.0000000000000E+00
(PID.TID 0000.0001) %MON exf_climsst_max              =   2.9586856842041E+01
(PID.TID 0000.0001) %MON exf_climsst_min              =  -1.9000000000000E+00
(PID.TID 0000.0001) %MON exf_climsst_mean             =   1.8517603046484E+01
(PID.TID 0000.0001) %MON exf_climsst_sd               =   9.1755933296167E+00
(PID.TID 0000.0001) %MON exf_climsst_del2             =   2.7002004366469E-01
(PID.TID 0000.0001) %MON exf_climsss_max              =   3.7377070617676E+01
(PID.TID 0000.0001) %MON exf_climsss_min              =   2.9747859954834E+01
(PID.TID 0000.0001) %MON exf_climsss_mean             =   3.4849900925312E+01
(PID.TID 0000.0001) %MON exf_climsss_sd               =   9.6134427191176E-01
(PID.TID 0000.0001) %MON exf_climsss_del2             =   7.8365470111756E-02
(PID.TID 0000.0001) // =======================================================
(PID.TID 0000.0001) // End MONITOR EXF statistics
(PID.TID 0000.0001) // =======================================================
 cg2d: Sum(rhs),rhsMax =  -9.64561763794336E-13  8.55668023568412E+00
(PID.TID 0000.0001)                    cg2d_init_res =    1.07798926929494E+00
(PID.TID 0000.0001)                       cg2d_iters =    25
(PID.TID 0000.0001)                         cg2d_res =    7.21403363283869E-14
(PID.TID 0000.0001) // =======================================================
(PID.TID 0000.0001) // Begin MONITOR dynamic field statistics
(PID.TID 0000.0001) // =======================================================
(PID.TID 0000.0001) %MON time_tsnumber                =                    13
(PID.TID 0000.0001) %MON time_secondsf                =   5.6160000000000E+05
(PID.TID 0000.0001) %MON dynstat_eta_max              =   1.0473168801190E+00
(PID.TID 0000.0001) %MON dynstat_eta_min              =  -1.0880115783696E+00
(PID.TID 0000.0001) %MON dynstat_eta_mean             =   5.7326751584804E-16
(PID.TID 0000.0001) %MON dynstat_eta_sd               =   3.3572847433657E-01
(PID.TID 0000.0001) %MON dynstat_eta_del2             =   2.2909417105450E-02
(PID.TID 0000.0001) %MON dynstat_uvel_max             =   1.2705218429019E-01
(PID.TID 0000.0001) %MON dynstat_uvel_min             =  -1.3618841631380E-01
(PID.TID 0000.0001) %MON dynstat_uvel_mean            =  -9.8062894521731E-03
(PID.TID 0000.0001) %MON dynstat_uvel_sd              =   1.4959223199115E-02
(PID.TID 0000.0001) %MON dynstat_uvel_del2            =   3.3476416935620E-03
(PID.TID 0000.0001) %MON dynstat_vvel_max             =   1.1161187498150E-01
(PID.TID 0000.0001) %MON dynstat_vvel_min             =  -1.0507288435905E-01
(PID.TID 0000.0001) %MON dynstat_vvel_mean            =   4.5068699880076E-03
(PID.TID 0000.0001) %MON dynstat_vvel_sd              =   1.5021548897909E-02
(PID.TID 0000.0001) %MON dynstat_vvel_del2            =   3.4673867536206E-03
(PID.TID 0000.0001) %MON dynstat_wvel_max             =   2.5872924182294E-04
(PID.TID 0000.0001) %MON dynstat_wvel_min             =  -3.6672100651543E-04
(PID.TID 0000.0001) %MON dynstat_wvel_mean            =   4.6974818064942E-23
(PID.TID 0000.0001) %MON dynstat_wvel_sd              =   3.5491592154174E-05
(PID.TID 0000.0001) %MON dynstat_wvel_del2            =   1.2213940839429E-05
(PID.TID 0000.0001) %MON dynstat_theta_max            =   2.9604766411869E+01
(PID.TID 0000.0001) %MON dynstat_theta_min            =  -2.1542993762507E+00
(PID.TID 0000.0001) %MON dynstat_theta_mean           =   3.6006493937365E+00
(PID.TID 0000.0001) %MON dynstat_theta_sd             =   4.3740925220350E+00
(PID.TID 0000.0001) %MON dynstat_theta_del2           =   1.4235478774036E-01
(PID.TID 0000.0001) %MON dynstat_salt_max             =   3.7427180740265E+01
(PID.TID 0000.0001) %MON dynstat_salt_min             =   2.9785830802559E+01
(PID.TID 0000.0001) %MON dynstat_salt_mean            =   3.4716457020930E+01
(PID.TID 0000.0001) %MON dynstat_salt_sd              =   2.9609722351168E-01
(PID.TID 0000.0001) %MON dynstat_salt_del2            =   2.6096452148456E-02
(PID.TID 0000.0001) %MON extforcing_qnet_max          =   4.2169909667969E+02
(PID.TID 0000.0001) %MON extforcing_qnet_min          =  -1.7858243103027E+02
(PID.TID 0000.0001) %MON extforcing_qnet_mean         =  -1.6003070996624E+01
(PID.TID 0000.0001) %MON extforcing_qnet_sd           =   1.0345568885738E+02
(PID.TID 0000.0001) %MON extforcing_qnet_del2         =   9.3678611333195E+00
(PID.TID 0000.0001) %MON extforcing_qsw_max           =   0.0000000000000E+00
(PID.TID 0000.0001) %MON extforcing_qsw_min           =   0.0000000000000E+00
(PID.TID 0000.0001) %MON extforcing_qsw_mean          =   0.0000000000000E+00
(PID.TID 0000.0001) %MON extforcing_qsw_sd            =   0.0000000000000E+00
(PID.TID 0000.0001) %MON extforcing_qsw_del2          =   0.0000000000000E+00
(PID.TID 0000.0001) %MON extforcing_empmr_max         =   0.0000000000000E+00
(PID.TID 0000.0001) %MON extforcing_empmr_min         =   0.0000000000000E+00
(PID.TID 0000.0001) %MON extforcing_empmr_mean        =   0.0000000000000E+00
(PID.TID 0000.0001) %MON extforcing_empmr_sd          =   0.0000000000000E+00
(PID.TID 0000.0001) %MON extforcing_empmr_del2        =   0.0000000000000E+00
(PID.TID 0000.0001) %MON extforcing_fu_max            =   2.7669257279485E-01
(PID.TID 0000.0001) %MON extforcing_fu_min            =  -1.7214591661468E-01
(PID.TID 0000.0001) %MON extforcing_fu_mean           =   1.7633637945293E-02
(PID.TID 0000.0001) %MON extforcing_fu_sd             =   8.7350197303418E-02
(PID.TID 0000.0001) %MON extforcing_fu_del2           =   7.5285476904723E-03
(PID.TID 0000.0001) %MON extforcing_fv_max            =   2.1067687077448E-01
(PID.TID 0000.0001) %MON extforcing_fv_min            =  -1.4258340401575E-01
(PID.TID 0000.0001) %MON extforcing_fv_mean           =  -9.8290895748127E-03
(PID.TID 0000.0001) %MON extforcing_fv_sd             =   3.7540360148408E-02
(PID.TID 0000.0001) %MON extforcing_fv_del2           =   3.4547535696003E-03
(PID.TID 0000.0001) %MON advcfl_uvel_max              =   2.4694803104089E-02
(PID.TID 0000.0001) %MON advcfl_vvel_max              =   1.0842198634820E-02
(PID.TID 0000.0001) %MON advcfl_wvel_max              =   2.0189846187043E-01
(PID.TID 0000.0001) %MON advcfl_W_hf_max              =   1.7680341855675E-01
(PID.TID 0000.0001) %MON pe_b_mean                    =   1.4423064774093E-04
(PID.TID 0000.0001) %MON ke_max                       =   8.5360735096416E-03
(PID.TID 0000.0001) %MON ke_mean                      =   2.5577603491569E-04
(PID.TID 0000.0001) %MON ke_vol                       =   1.3226782436723E+18
(PID.TID 0000.0001) %MON vort_r_min                   =  -3.3384694129390E-07
(PID.TID 0000.0001) %MON vort_r_max                   =   6.1313299934314E-07
(PID.TID 0000.0001) %MON vort_a_mean                  =  -2.5205769803412E-05
(PID.TID 0000.0001) %MON vort_a_sd                    =   7.3401405597282E-05
(PID.TID 0000.0001) %MON vort_p_mean                  =  -3.1758670074025E-05
(PID.TID 0000.0001) %MON vort_p_sd                    =   1.3126037758257E-04
(PID.TID 0000.0001) %MON surfExpan_theta_mean         =   1.2920043462189E-04
(PID.TID 0000.0001) %MON surfExpan_salt_mean          =   8.8147591236900E-06
(PID.TID 0000.0001) // =======================================================
(PID.TID 0000.0001) // End MONITOR dynamic field statistics
(PID.TID 0000.0001) // =======================================================
(PID.TID 0000.0001)  exf_GetFFieldsRec:
(PID.TID 0000.0001)  exf_GetFFieldsRec: first, changed, fac:   F   F   0.78333333E+00
(PID.TID 0000.0001)  exf_GetFFieldsRec: myiter, count0, count1:     13      1      2
(PID.TID 0000.0001)  exf_GetFFieldsRec:
(PID.TID 0000.0001)  exf_GetFFieldsRec:
(PID.TID 0000.0001)  exf_GetFFieldsRec: first, changed, fac:   F   F   0.78333333E+00
(PID.TID 0000.0001)  exf_GetFFieldsRec: myiter, count0, count1:     13      1      2
(PID.TID 0000.0001)  exf_GetFFieldsRec:
(PID.TID 0000.0001)  exf_GetFFieldsRec:
(PID.TID 0000.0001)  exf_GetFFieldsRec: first, changed, fac:   F   F   0.78333333E+00
(PID.TID 0000.0001)  exf_GetFFieldsRec: myiter, count0, count1:     13      1      2
(PID.TID 0000.0001)  exf_GetFFieldsRec:
(PID.TID 0000.0001)  exf_GetFFieldsRec:
(PID.TID 0000.0001)  exf_GetFFieldsRec: first, changed, fac:   F   F   0.78333333E+00
(PID.TID 0000.0001)  exf_GetFFieldsRec: myiter, count0, count1:     13      1      2
(PID.TID 0000.0001)  exf_GetFFieldsRec:
(PID.TID 0000.0001)  exf_GetFFieldsRec:
(PID.TID 0000.0001)  exf_GetFFieldsRec: first, changed, fac:   F   F   0.78333333E+00
(PID.TID 0000.0001)  exf_GetFFieldsRec: myiter, count0, count1:     13      1      2
(PID.TID 0000.0001)  exf_GetFFieldsRec:
(PID.TID 0000.0001) // =======================================================
(PID.TID 0000.0001) // Begin MONITOR EXF statistics
(PID.TID 0000.0001) // =======================================================
(PID.TID 0000.0001) %MON exf_tsnumber                 =                    13
(PID.TID 0000.0001) %MON exf_time_sec                 =   5.6160000000000E+05
(PID.TID 0000.0001) %MON exf_ustress_max              =   2.7760879704729E-01
(PID.TID 0000.0001) %MON exf_ustress_min              =  -1.7370703914203E-01
(PID.TID 0000.0001) %MON exf_ustress_mean             =   1.5768951433643E-02
(PID.TID 0000.0001) %MON exf_ustress_sd               =   8.7835469571759E-02
(PID.TID 0000.0001) %MON exf_ustress_del2             =   8.6726527320591E-03
(PID.TID 0000.0001) %MON exf_vstress_max              =   2.0987975212435E-01
(PID.TID 0000.0001) %MON exf_vstress_min              =  -1.7060625973778E-01
(PID.TID 0000.0001) %MON exf_vstress_mean             =  -5.6040798522945E-03
(PID.TID 0000.0001) %MON exf_vstress_sd               =   4.5756387458641E-02
(PID.TID 0000.0001) %MON exf_vstress_del2             =   5.0885650172079E-03
(PID.TID 0000.0001) %MON exf_hflux_max                =   4.2003955332438E+02
(PID.TID 0000.0001) %MON exf_hflux_min                =  -1.7846267140706E+02
(PID.TID 0000.0001) %MON exf_hflux_mean               =  -1.5960616412922E+01
(PID.TID 0000.0001) %MON exf_hflux_sd                 =   1.0292718299394E+02
(PID.TID 0000.0001) %MON exf_hflux_del2               =   9.3438824482456E+00
(PID.TID 0000.0001) %MON exf_sflux_max                =   0.0000000000000E+00
(PID.TID 0000.0001) %MON exf_sflux_min                =   0.0000000000000E+00
(PID.TID 0000.0001) %MON exf_sflux_mean               =   0.0000000000000E+00
(PID.TID 0000.0001) %MON exf_sflux_sd                 =   0.0000000000000E+00
(PID.TID 0000.0001) %MON exf_sflux_del2               =   0.0000000000000E+00
(PID.TID 0000.0001) %MON exf_wspeed_max               =   0.0000000000000E+00
(PID.TID 0000.0001) %MON exf_wspeed_min               =   0.0000000000000E+00
(PID.TID 0000.0001) %MON exf_wspeed_mean              =   0.0000000000000E+00
(PID.TID 0000.0001) %MON exf_wspeed_sd                =   0.0000000000000E+00
(PID.TID 0000.0001) %MON exf_wspeed_del2              =   0.0000000000000E+00
(PID.TID 0000.0001) %MON exf_swflux_max               =   0.0000000000000E+00
(PID.TID 0000.0001) %MON exf_swflux_min               =   0.0000000000000E+00
(PID.TID 0000.0001) %MON exf_swflux_mean              =   0.0000000000000E+00
(PID.TID 0000.0001) %MON exf_swflux_sd                =   0.0000000000000E+00
(PID.TID 0000.0001) %MON exf_swflux_del2              =   0.0000000000000E+00
(PID.TID 0000.0001) %MON exf_apressure_max            =   0.0000000000000E+00
(PID.TID 0000.0001) %MON exf_apressure_min            =   0.0000000000000E+00
(PID.TID 0000.0001) %MON exf_apressure_mean           =   0.0000000000000E+00
(PID.TID 0000.0001) %MON exf_apressure_sd             =   0.0000000000000E+00
(PID.TID 0000.0001) %MON exf_apressure_del2           =   0.0000000000000E+00
(PID.TID 0000.0001) %MON exf_climsst_max              =   2.9574645837148E+01
(PID.TID 0000.0001) %MON exf_climsst_min              =  -1.9000000000000E+00
(PID.TID 0000.0001) %MON exf_climsst_mean             =   1.8520349639002E+01
(PID.TID 0000.0001) %MON exf_climsst_sd               =   9.1753674178689E+00
(PID.TID 0000.0001) %MON exf_climsst_del2             =   2.6903220020010E-01
(PID.TID 0000.0001) %MON exf_climsss_max              =   3.7372812525431E+01
(PID.TID 0000.0001) %MON exf_climsss_min              =   2.9747450828552E+01
(PID.TID 0000.0001) %MON exf_climsss_mean             =   3.4849898896154E+01
(PID.TID 0000.0001) %MON exf_climsss_sd               =   9.6126429648767E-01
(PID.TID 0000.0001) %MON exf_climsss_del2             =   7.7998628135720E-02
(PID.TID 0000.0001) // =======================================================
(PID.TID 0000.0001) // End MONITOR EXF statistics
(PID.TID 0000.0001) // =======================================================
 cg2d: Sum(rhs),rhsMax =  -8.49098569233320E-13  9.25234744970680E+00
(PID.TID 0000.0001)                    cg2d_init_res =    9.65058636202020E-01
(PID.TID 0000.0001)                       cg2d_iters =    25
(PID.TID 0000.0001)                         cg2d_res =    6.14901350027566E-14
(PID.TID 0000.0001) // =======================================================
(PID.TID 0000.0001) // Begin MONITOR dynamic field statistics
(PID.TID 0000.0001) // =======================================================
(PID.TID 0000.0001) %MON time_tsnumber                =                    14
(PID.TID 0000.0001) %MON time_secondsf                =   6.0480000000000E+05
(PID.TID 0000.0001) %MON dynstat_eta_max              =   1.1181948707724E+00
(PID.TID 0000.0001) %MON dynstat_eta_min              =  -1.1569990541833E+00
(PID.TID 0000.0001) %MON dynstat_eta_mean             =   4.8270392724646E-16
(PID.TID 0000.0001) %MON dynstat_eta_sd               =   3.4918599214365E-01
(PID.TID 0000.0001) %MON dynstat_eta_del2             =   2.2217371303360E-02
(PID.TID 0000.0001) %MON dynstat_uvel_max             =   1.3342436219487E-01
(PID.TID 0000.0001) %MON dynstat_uvel_min             =  -1.3190194737273E-01
(PID.TID 0000.0001) %MON dynstat_uvel_mean            =  -1.0167709332436E-02
(PID.TID 0000.0001) %MON dynstat_uvel_sd              =   1.5811141958073E-02
(PID.TID 0000.0001) %MON dynstat_uvel_del2            =   3.4384498841312E-03
(PID.TID 0000.0001) %MON dynstat_vvel_max             =   1.2346224963239E-01
(PID.TID 0000.0001) %MON dynstat_vvel_min             =  -1.0499819926311E-01
(PID.TID 0000.0001) %MON dynstat_vvel_mean            =   4.1669456049857E-03
(PID.TID 0000.0001) %MON dynstat_vvel_sd              =   1.4715144022995E-02
(PID.TID 0000.0001) %MON dynstat_vvel_del2            =   3.4860516727118E-03
(PID.TID 0000.0001) %MON dynstat_wvel_max             =   2.5643896238261E-04
(PID.TID 0000.0001) %MON dynstat_wvel_min             =  -3.6895271799969E-04
(PID.TID 0000.0001) %MON dynstat_wvel_mean            =  -7.0462227097413E-22
(PID.TID 0000.0001) %MON dynstat_wvel_sd              =   3.4552295752381E-05
(PID.TID 0000.0001) %MON dynstat_wvel_del2            =   1.1827578668480E-05
(PID.TID 0000.0001) %MON dynstat_theta_max            =   2.9571318013793E+01
(PID.TID 0000.0001) %MON dynstat_theta_min            =  -2.1579706408251E+00
(PID.TID 0000.0001) %MON dynstat_theta_mean           =   3.5993239317350E+00
(PID.TID 0000.0001) %MON dynstat_theta_sd             =   4.3702756927878E+00
(PID.TID 0000.0001) %MON dynstat_theta_del2           =   1.4191028378495E-01
(PID.TID 0000.0001) %MON dynstat_salt_max             =   3.7425260373505E+01
(PID.TID 0000.0001) %MON dynstat_salt_min             =   2.9786350452381E+01
(PID.TID 0000.0001) %MON dynstat_salt_mean            =   3.4716366787249E+01
(PID.TID 0000.0001) %MON dynstat_salt_sd              =   2.9606433904308E-01
(PID.TID 0000.0001) %MON dynstat_salt_del2            =   2.6080137470698E-02
(PID.TID 0000.0001) %MON extforcing_qnet_max          =   4.2003955332438E+02
(PID.TID 0000.0001) %MON extforcing_qnet_min          =  -1.7846267140706E+02
(PID.TID 0000.0001) %MON extforcing_qnet_mean         =  -1.5960616412922E+01
(PID.TID 0000.0001) %MON extforcing_qnet_sd           =   1.0292718299394E+02
(PID.TID 0000.0001) %MON extforcing_qnet_del2         =   9.3438824482456E+00
(PID.TID 0000.0001) %MON extforcing_qsw_max           =   0.0000000000000E+00
(PID.TID 0000.0001) %MON extforcing_qsw_min           =   0.0000000000000E+00
(PID.TID 0000.0001) %MON extforcing_qsw_mean          =   0.0000000000000E+00
(PID.TID 0000.0001) %MON extforcing_qsw_sd            =   0.0000000000000E+00
(PID.TID 0000.0001) %MON extforcing_qsw_del2          =   0.0000000000000E+00
(PID.TID 0000.0001) %MON extforcing_empmr_max         =   0.0000000000000E+00
(PID.TID 0000.0001) %MON extforcing_empmr_min         =   0.0000000000000E+00
(PID.TID 0000.0001) %MON extforcing_empmr_mean        =   0.0000000000000E+00
(PID.TID 0000.0001) %MON extforcing_empmr_sd          =   0.0000000000000E+00
(PID.TID 0000.0001) %MON extforcing_empmr_del2        =   0.0000000000000E+00
(PID.TID 0000.0001) %MON extforcing_fu_max            =   2.7666940186173E-01
(PID.TID 0000.0001) %MON extforcing_fu_min            =  -1.7295524070505E-01
(PID.TID 0000.0001) %MON extforcing_fu_mean           =   1.7696736734977E-02
(PID.TID 0000.0001) %MON extforcing_fu_sd             =   8.7362134678720E-02
(PID.TID 0000.0001) %MON extforcing_fu_del2           =   7.5167731619241E-03
(PID.TID 0000.0001) %MON extforcing_fv_max            =   2.0940546555600E-01
(PID.TID 0000.0001) %MON extforcing_fv_min            =  -1.4197065371942E-01
(PID.TID 0000.0001) %MON extforcing_fv_mean           =  -9.8361256779210E-03
(PID.TID 0000.0001) %MON extforcing_fv_sd             =   3.7500856625541E-02
(PID.TID 0000.0001) %MON extforcing_fv_del2           =   3.4467570482167E-03
(PID.TID 0000.0001) %MON advcfl_uvel_max              =   2.7055527742941E-02
(PID.TID 0000.0001) %MON advcfl_vvel_max              =   1.1993367503574E-02
(PID.TID 0000.0001) %MON advcfl_wvel_max              =   1.8719154394865E-01
(PID.TID 0000.0001) %MON advcfl_W_hf_max              =   1.6477017080099E-01
(PID.TID 0000.0001) %MON pe_b_mean                    =   1.5602522834278E-04
(PID.TID 0000.0001) %MON ke_max                       =   9.5050884203777E-03
(PID.TID 0000.0001) %MON ke_mean                      =   2.6555086333144E-04
(PID.TID 0000.0001) %MON ke_vol                       =   1.3226782436723E+18
(PID.TID 0000.0001) %MON vort_r_min                   =  -3.5289163792763E-07
(PID.TID 0000.0001) %MON vort_r_max                   =   6.1137832885042E-07
(PID.TID 0000.0001) %MON vort_a_mean                  =  -2.5205769802089E-05
(PID.TID 0000.0001) %MON vort_a_sd                    =   7.3401329026159E-05
(PID.TID 0000.0001) %MON vort_p_mean                  =  -3.1758670072357E-05
(PID.TID 0000.0001) %MON vort_p_sd                    =   1.3126004772472E-04
(PID.TID 0000.0001) %MON surfExpan_theta_mean         =   1.1563871411617E-04
(PID.TID 0000.0001) %MON surfExpan_salt_mean          =   7.4190149784648E-06
(PID.TID 0000.0001) // =======================================================
(PID.TID 0000.0001) // End MONITOR dynamic field statistics
(PID.TID 0000.0001) // =======================================================
(PID.TID 0000.0001)  exf_GetFFieldsRec:
(PID.TID 0000.0001)  exf_GetFFieldsRec: first, changed, fac:   F   F   0.76666667E+00
(PID.TID 0000.0001)  exf_GetFFieldsRec: myiter, count0, count1:     14      1      2
(PID.TID 0000.0001)  exf_GetFFieldsRec:
(PID.TID 0000.0001)  exf_GetFFieldsRec:
(PID.TID 0000.0001)  exf_GetFFieldsRec: first, changed, fac:   F   F   0.76666667E+00
(PID.TID 0000.0001)  exf_GetFFieldsRec: myiter, count0, count1:     14      1      2
(PID.TID 0000.0001)  exf_GetFFieldsRec:
(PID.TID 0000.0001)  exf_GetFFieldsRec:
(PID.TID 0000.0001)  exf_GetFFieldsRec: first, changed, fac:   F   F   0.76666667E+00
(PID.TID 0000.0001)  exf_GetFFieldsRec: myiter, count0, count1:     14      1      2
(PID.TID 0000.0001)  exf_GetFFieldsRec:
(PID.TID 0000.0001)  exf_GetFFieldsRec:
(PID.TID 0000.0001)  exf_GetFFieldsRec: first, changed, fac:   F   F   0.76666667E+00
(PID.TID 0000.0001)  exf_GetFFieldsRec: myiter, count0, count1:     14      1      2
(PID.TID 0000.0001)  exf_GetFFieldsRec:
(PID.TID 0000.0001)  exf_GetFFieldsRec:
(PID.TID 0000.0001)  exf_GetFFieldsRec: first, changed, fac:   F   F   0.76666667E+00
(PID.TID 0000.0001)  exf_GetFFieldsRec: myiter, count0, count1:     14      1      2
(PID.TID 0000.0001)  exf_GetFFieldsRec:
(PID.TID 0000.0001) // =======================================================
(PID.TID 0000.0001) // Begin MONITOR EXF statistics
(PID.TID 0000.0001) // =======================================================
(PID.TID 0000.0001) %MON exf_tsnumber                 =                    14
(PID.TID 0000.0001) %MON exf_time_sec                 =   6.0480000000000E+05
(PID.TID 0000.0001) %MON exf_ustress_max              =   2.7764487620443E-01
(PID.TID 0000.0001) %MON exf_ustress_min              =  -1.7461243169382E-01
(PID.TID 0000.0001) %MON exf_ustress_mean             =   1.5795508794434E-02
(PID.TID 0000.0001) %MON exf_ustress_sd               =   8.7796404015599E-02
(PID.TID 0000.0001) %MON exf_ustress_del2             =   8.6600678549528E-03
(PID.TID 0000.0001) %MON exf_vstress_max              =   2.0853545324256E-01
(PID.TID 0000.0001) %MON exf_vstress_min              =  -1.6994665249561E-01
(PID.TID 0000.0001) %MON exf_vstress_mean             =  -5.6345276536505E-03
(PID.TID 0000.0001) %MON exf_vstress_sd               =   4.5634481449251E-02
(PID.TID 0000.0001) %MON exf_vstress_del2             =   5.0744308129924E-03
(PID.TID 0000.0001) %MON exf_hflux_max                =   4.1838000996908E+02
(PID.TID 0000.0001) %MON exf_hflux_min                =  -1.7834291178385E+02
(PID.TID 0000.0001) %MON exf_hflux_mean               =  -1.5918161829221E+01
(PID.TID 0000.0001) %MON exf_hflux_sd                 =   1.0239971019621E+02
(PID.TID 0000.0001) %MON exf_hflux_del2               =   9.3200538001827E+00
(PID.TID 0000.0001) %MON exf_sflux_max                =   0.0000000000000E+00
(PID.TID 0000.0001) %MON exf_sflux_min                =   0.0000000000000E+00
(PID.TID 0000.0001) %MON exf_sflux_mean               =   0.0000000000000E+00
(PID.TID 0000.0001) %MON exf_sflux_sd                 =   0.0000000000000E+00
(PID.TID 0000.0001) %MON exf_sflux_del2               =   0.0000000000000E+00
(PID.TID 0000.0001) %MON exf_wspeed_max               =   0.0000000000000E+00
(PID.TID 0000.0001) %MON exf_wspeed_min               =   0.0000000000000E+00
(PID.TID 0000.0001) %MON exf_wspeed_mean              =   0.0000000000000E+00
(PID.TID 0000.0001) %MON exf_wspeed_sd                =   0.0000000000000E+00
(PID.TID 0000.0001) %MON exf_wspeed_del2              =   0.0000000000000E+00
(PID.TID 0000.0001) %MON exf_swflux_max               =   0.0000000000000E+00
(PID.TID 0000.0001) %MON exf_swflux_min               =   0.0000000000000E+00
(PID.TID 0000.0001) %MON exf_swflux_mean              =   0.0000000000000E+00
(PID.TID 0000.0001) %MON exf_swflux_sd                =   0.0000000000000E+00
(PID.TID 0000.0001) %MON exf_swflux_del2              =   0.0000000000000E+00
(PID.TID 0000.0001) %MON exf_apressure_max            =   0.0000000000000E+00
(PID.TID 0000.0001) %MON exf_apressure_min            =   0.0000000000000E+00
(PID.TID 0000.0001) %MON exf_apressure_mean           =   0.0000000000000E+00
(PID.TID 0000.0001) %MON exf_apressure_sd             =   0.0000000000000E+00
(PID.TID 0000.0001) %MON exf_apressure_del2           =   0.0000000000000E+00
(PID.TID 0000.0001) %MON exf_climsst_max              =   2.9562434832255E+01
(PID.TID 0000.0001) %MON exf_climsst_min              =  -1.9000000000000E+00
(PID.TID 0000.0001) %MON exf_climsst_mean             =   1.8523099489954E+01
(PID.TID 0000.0001) %MON exf_climsst_sd               =   9.1751542574785E+00
(PID.TID 0000.0001) %MON exf_climsst_del2             =   2.6808292444691E-01
(PID.TID 0000.0001) %MON exf_climsss_max              =   3.7371153004964E+01
(PID.TID 0000.0001) %MON exf_climsss_min              =   2.9747041702271E+01
(PID.TID 0000.0001) %MON exf_climsss_mean             =   3.4849896866996E+01
(PID.TID 0000.0001) %MON exf_climsss_sd               =   9.6119903048301E-01
(PID.TID 0000.0001) %MON exf_climsss_del2             =   7.7654935082916E-02
(PID.TID 0000.0001) // =======================================================
(PID.TID 0000.0001) // End MONITOR EXF statistics
(PID.TID 0000.0001) // =======================================================
 cg2d: Sum(rhs),rhsMax =  -9.14823772291129E-13  9.75389209498165E+00
(PID.TID 0000.0001)                    cg2d_init_res =    8.90488737680103E-01
(PID.TID 0000.0001)                       cg2d_iters =    25
(PID.TID 0000.0001)                         cg2d_res =    5.29230443587274E-14
(PID.TID 0000.0001) // =======================================================
(PID.TID 0000.0001) // Begin MONITOR dynamic field statistics
(PID.TID 0000.0001) // =======================================================
(PID.TID 0000.0001) %MON time_tsnumber                =                    15
(PID.TID 0000.0001) %MON time_secondsf                =   6.4800000000000E+05
(PID.TID 0000.0001) %MON dynstat_eta_max              =   1.1769203285982E+00
(PID.TID 0000.0001) %MON dynstat_eta_min              =  -1.1923131179458E+00
(PID.TID 0000.0001) %MON dynstat_eta_mean             =   4.5100667123590E-16
(PID.TID 0000.0001) %MON dynstat_eta_sd               =   3.6013742287163E-01
(PID.TID 0000.0001) %MON dynstat_eta_del2             =   2.1636071040292E-02
(PID.TID 0000.0001) %MON dynstat_uvel_max             =   1.4301589442228E-01
(PID.TID 0000.0001) %MON dynstat_uvel_min             =  -1.3170573269886E-01
(PID.TID 0000.0001) %MON dynstat_uvel_mean            =  -1.0380554198179E-02
(PID.TID 0000.0001) %MON dynstat_uvel_sd              =   1.6543298358711E-02
(PID.TID 0000.0001) %MON dynstat_uvel_del2            =   3.5110808228695E-03
(PID.TID 0000.0001) %MON dynstat_vvel_max             =   1.3669613119094E-01
(PID.TID 0000.0001) %MON dynstat_vvel_min             =  -1.0646176713509E-01
(PID.TID 0000.0001) %MON dynstat_vvel_mean            =   3.7984767779131E-03
(PID.TID 0000.0001) %MON dynstat_vvel_sd              =   1.4412521616893E-02
(PID.TID 0000.0001) %MON dynstat_vvel_del2            =   3.4868724431574E-03
(PID.TID 0000.0001) %MON dynstat_wvel_max             =   2.5424467067175E-04
(PID.TID 0000.0001) %MON dynstat_wvel_min             =  -3.6465272637383E-04
(PID.TID 0000.0001) %MON dynstat_wvel_mean            =   2.0199171767925E-21
(PID.TID 0000.0001) %MON dynstat_wvel_sd              =   3.3451600274237E-05
(PID.TID 0000.0001) %MON dynstat_wvel_del2            =   1.1346999029859E-05
(PID.TID 0000.0001) %MON dynstat_theta_max            =   2.9540634289977E+01
(PID.TID 0000.0001) %MON dynstat_theta_min            =  -2.1536215831489E+00
(PID.TID 0000.0001) %MON dynstat_theta_mean           =   3.5981588596469E+00
(PID.TID 0000.0001) %MON dynstat_theta_sd             =   4.3666850140990E+00
(PID.TID 0000.0001) %MON dynstat_theta_del2           =   1.4151471562134E-01
(PID.TID 0000.0001) %MON dynstat_salt_max             =   3.7423451927364E+01
(PID.TID 0000.0001) %MON dynstat_salt_min             =   2.9786544597801E+01
(PID.TID 0000.0001) %MON dynstat_salt_mean            =   3.4716292696036E+01
(PID.TID 0000.0001) %MON dynstat_salt_sd              =   2.9602866032271E-01
(PID.TID 0000.0001) %MON dynstat_salt_del2            =   2.6070388549410E-02
(PID.TID 0000.0001) %MON extforcing_qnet_max          =   4.1838000996908E+02
(PID.TID 0000.0001) %MON extforcing_qnet_min          =  -1.7834291178385E+02
(PID.TID 0000.0001) %MON extforcing_qnet_mean         =  -1.5918161829221E+01
(PID.TID 0000.0001) %MON extforcing_qnet_sd           =   1.0239971019621E+02
(PID.TID 0000.0001) %MON extforcing_qnet_del2         =   9.3200538001827E+00
(PID.TID 0000.0001) %MON extforcing_qsw_max           =   0.0000000000000E+00
(PID.TID 0000.0001) %MON extforcing_qsw_min           =   0.0000000000000E+00
(PID.TID 0000.0001) %MON extforcing_qsw_mean          =   0.0000000000000E+00
(PID.TID 0000.0001) %MON extforcing_qsw_sd            =   0.0000000000000E+00
(PID.TID 0000.0001) %MON extforcing_qsw_del2          =   0.0000000000000E+00
(PID.TID 0000.0001) %MON extforcing_empmr_max         =   0.0000000000000E+00
(PID.TID 0000.0001) %MON extforcing_empmr_min         =   0.0000000000000E+00
(PID.TID 0000.0001) %MON extforcing_empmr_mean        =   0.0000000000000E+00
(PID.TID 0000.0001) %MON extforcing_empmr_sd          =   0.0000000000000E+00
(PID.TID 0000.0001) %MON extforcing_empmr_del2        =   0.0000000000000E+00
(PID.TID 0000.0001) %MON extforcing_fu_max            =   2.7664623092860E-01
(PID.TID 0000.0001) %MON extforcing_fu_min            =  -1.7376456479542E-01
(PID.TID 0000.0001) %MON extforcing_fu_mean           =   1.7759835524661E-02
(PID.TID 0000.0001) %MON extforcing_fu_sd             =   8.7378249921965E-02
(PID.TID 0000.0001) %MON extforcing_fu_del2           =   7.5058805652147E-03
(PID.TID 0000.0001) %MON extforcing_fv_max            =   2.0813406033752E-01
(PID.TID 0000.0001) %MON extforcing_fv_min            =  -1.4135790342310E-01
(PID.TID 0000.0001) %MON extforcing_fv_mean           =  -9.8431617810293E-03
(PID.TID 0000.0001) %MON extforcing_fv_sd             =   3.7464391779680E-02
(PID.TID 0000.0001) %MON extforcing_fv_del2           =   3.4392910079186E-03
(PID.TID 0000.0001) %MON advcfl_uvel_max              =   2.8069601526733E-02
(PID.TID 0000.0001) %MON advcfl_vvel_max              =   1.3278932974016E-02
(PID.TID 0000.0001) %MON advcfl_wvel_max              =   1.5751018850900E-01
(PID.TID 0000.0001) %MON advcfl_W_hf_max              =   1.3930302705393E-01
(PID.TID 0000.0001) %MON pe_b_mean                    =   1.6596545659289E-04
(PID.TID 0000.0001) %MON ke_max                       =   1.0425008536619E-02
(PID.TID 0000.0001) %MON ke_mean                      =   2.7302494850585E-04
(PID.TID 0000.0001) %MON ke_vol                       =   1.3226782436723E+18
(PID.TID 0000.0001) %MON vort_r_min                   =  -3.7564731115591E-07
(PID.TID 0000.0001) %MON vort_r_max                   =   5.9294415539618E-07
(PID.TID 0000.0001) %MON vort_a_mean                  =  -2.5205769774918E-05
(PID.TID 0000.0001) %MON vort_a_sd                    =   7.3401279264229E-05
(PID.TID 0000.0001) %MON vort_p_mean                  =  -3.1758670038123E-05
(PID.TID 0000.0001) %MON vort_p_sd                    =   1.3125982853368E-04
(PID.TID 0000.0001) %MON surfExpan_theta_mean         =   1.0138955481112E-04
(PID.TID 0000.0001) %MON surfExpan_salt_mean          =   6.0045564373430E-06
(PID.TID 0000.0001) // =======================================================
(PID.TID 0000.0001) // End MONITOR dynamic field statistics
(PID.TID 0000.0001) // =======================================================
(PID.TID 0000.0001)  exf_GetFFieldsRec:
(PID.TID 0000.0001)  exf_GetFFieldsRec: first, changed, fac:   F   F   0.75000000E+00
(PID.TID 0000.0001)  exf_GetFFieldsRec: myiter, count0, count1:     15      1      2
(PID.TID 0000.0001)  exf_GetFFieldsRec:
(PID.TID 0000.0001)  exf_GetFFieldsRec:
(PID.TID 0000.0001)  exf_GetFFieldsRec: first, changed, fac:   F   F   0.75000000E+00
(PID.TID 0000.0001)  exf_GetFFieldsRec: myiter, count0, count1:     15      1      2
(PID.TID 0000.0001)  exf_GetFFieldsRec:
(PID.TID 0000.0001)  exf_GetFFieldsRec:
(PID.TID 0000.0001)  exf_GetFFieldsRec: first, changed, fac:   F   F   0.75000000E+00
(PID.TID 0000.0001)  exf_GetFFieldsRec: myiter, count0, count1:     15      1      2
(PID.TID 0000.0001)  exf_GetFFieldsRec:
(PID.TID 0000.0001)  exf_GetFFieldsRec:
(PID.TID 0000.0001)  exf_GetFFieldsRec: first, changed, fac:   F   F   0.75000000E+00
(PID.TID 0000.0001)  exf_GetFFieldsRec: myiter, count0, count1:     15      1      2
(PID.TID 0000.0001)  exf_GetFFieldsRec:
(PID.TID 0000.0001)  exf_GetFFieldsRec:
(PID.TID 0000.0001)  exf_GetFFieldsRec: first, changed, fac:   F   F   0.75000000E+00
(PID.TID 0000.0001)  exf_GetFFieldsRec: myiter, count0, count1:     15      1      2
(PID.TID 0000.0001)  exf_GetFFieldsRec:
(PID.TID 0000.0001) // =======================================================
(PID.TID 0000.0001) // Begin MONITOR EXF statistics
(PID.TID 0000.0001) // =======================================================
(PID.TID 0000.0001) %MON exf_tsnumber                 =                    15
(PID.TID 0000.0001) %MON exf_time_sec                 =   6.4800000000000E+05
(PID.TID 0000.0001) %MON exf_ustress_max              =   2.7768095536157E-01
(PID.TID 0000.0001) %MON exf_ustress_min              =  -1.7551782424562E-01
(PID.TID 0000.0001) %MON exf_ustress_mean             =   1.5822066155226E-02
(PID.TID 0000.0001) %MON exf_ustress_sd               =   8.7761629489887E-02
(PID.TID 0000.0001) %MON exf_ustress_del2             =   8.6486216561805E-03
(PID.TID 0000.0001) %MON exf_vstress_max              =   2.0719115436077E-01
(PID.TID 0000.0001) %MON exf_vstress_min              =  -1.6928704525344E-01
(PID.TID 0000.0001) %MON exf_vstress_mean             =  -5.6649754550065E-03
(PID.TID 0000.0001) %MON exf_vstress_sd               =   4.5515966534137E-02
(PID.TID 0000.0001) %MON exf_vstress_del2             =   5.0613823065532E-03
(PID.TID 0000.0001) %MON exf_hflux_max                =   4.1672046661377E+02
(PID.TID 0000.0001) %MON exf_hflux_min                =  -1.7822315216064E+02
(PID.TID 0000.0001) %MON exf_hflux_mean               =  -1.5875707245519E+01
(PID.TID 0000.0001) %MON exf_hflux_sd                 =   1.0187328651100E+02
(PID.TID 0000.0001) %MON exf_hflux_del2               =   9.2966885862128E+00
(PID.TID 0000.0001) %MON exf_sflux_max                =   0.0000000000000E+00
(PID.TID 0000.0001) %MON exf_sflux_min                =   0.0000000000000E+00
(PID.TID 0000.0001) %MON exf_sflux_mean               =   0.0000000000000E+00
(PID.TID 0000.0001) %MON exf_sflux_sd                 =   0.0000000000000E+00
(PID.TID 0000.0001) %MON exf_sflux_del2               =   0.0000000000000E+00
(PID.TID 0000.0001) %MON exf_wspeed_max               =   0.0000000000000E+00
(PID.TID 0000.0001) %MON exf_wspeed_min               =   0.0000000000000E+00
(PID.TID 0000.0001) %MON exf_wspeed_mean              =   0.0000000000000E+00
(PID.TID 0000.0001) %MON exf_wspeed_sd                =   0.0000000000000E+00
(PID.TID 0000.0001) %MON exf_wspeed_del2              =   0.0000000000000E+00
(PID.TID 0000.0001) %MON exf_swflux_max               =   0.0000000000000E+00
(PID.TID 0000.0001) %MON exf_swflux_min               =   0.0000000000000E+00
(PID.TID 0000.0001) %MON exf_swflux_mean              =   0.0000000000000E+00
(PID.TID 0000.0001) %MON exf_swflux_sd                =   0.0000000000000E+00
(PID.TID 0000.0001) %MON exf_swflux_del2              =   0.0000000000000E+00
(PID.TID 0000.0001) %MON exf_apressure_max            =   0.0000000000000E+00
(PID.TID 0000.0001) %MON exf_apressure_min            =   0.0000000000000E+00
(PID.TID 0000.0001) %MON exf_apressure_mean           =   0.0000000000000E+00
(PID.TID 0000.0001) %MON exf_apressure_sd             =   0.0000000000000E+00
(PID.TID 0000.0001) %MON exf_apressure_del2           =   0.0000000000000E+00
(PID.TID 0000.0001) %MON exf_climsst_max              =   2.9550223827362E+01
(PID.TID 0000.0001) %MON exf_climsst_min              =  -1.9000000000000E+00
(PID.TID 0000.0001) %MON exf_climsst_mean             =   1.8525851706470E+01
(PID.TID 0000.0001) %MON exf_climsst_sd               =   9.1749558179352E+00
(PID.TID 0000.0001) %MON exf_climsst_del2             =   2.6718367336588E-01
(PID.TID 0000.0001) %MON exf_climsss_max              =   3.7369493484497E+01
(PID.TID 0000.0001) %MON exf_climsss_min              =   2.9746632575989E+01
(PID.TID 0000.0001) %MON exf_climsss_mean             =   3.4849894837838E+01
(PID.TID 0000.0001) %MON exf_climsss_sd               =   9.6114847689426E-01
(PID.TID 0000.0001) %MON exf_climsss_del2             =   7.7336123180183E-02
(PID.TID 0000.0001) // =======================================================
(PID.TID 0000.0001) // End MONITOR EXF statistics
(PID.TID 0000.0001) // =======================================================
 cg2d: Sum(rhs),rhsMax =  -9.02389274415327E-13  1.00462987809433E+01
(PID.TID 0000.0001)                    cg2d_init_res =    8.45302167388677E-01
(PID.TID 0000.0001)                       cg2d_iters =    25
(PID.TID 0000.0001)                         cg2d_res =    4.55857517537120E-14
(PID.TID 0000.0001) // =======================================================
(PID.TID 0000.0001) // Begin MONITOR dynamic field statistics
(PID.TID 0000.0001) // =======================================================
(PID.TID 0000.0001) %MON time_tsnumber                =                    16
(PID.TID 0000.0001) %MON time_secondsf                =   6.9120000000000E+05
(PID.TID 0000.0001) %MON dynstat_eta_max              =   1.2111495471433E+00
(PID.TID 0000.0001) %MON dynstat_eta_min              =  -1.1856483078506E+00
(PID.TID 0000.0001) %MON dynstat_eta_mean             =   5.5696606989976E-16
(PID.TID 0000.0001) %MON dynstat_eta_sd               =   3.6867572606161E-01
(PID.TID 0000.0001) %MON dynstat_eta_del2             =   2.1152955408270E-02
(PID.TID 0000.0001) %MON dynstat_uvel_max             =   1.5181570667947E-01
(PID.TID 0000.0001) %MON dynstat_uvel_min             =  -1.3292988075645E-01
(PID.TID 0000.0001) %MON dynstat_uvel_mean            =  -1.0445914875601E-02
(PID.TID 0000.0001) %MON dynstat_uvel_sd              =   1.7156963245428E-02
(PID.TID 0000.0001) %MON dynstat_uvel_del2            =   3.5692831692042E-03
(PID.TID 0000.0001) %MON dynstat_vvel_max             =   1.4684611810021E-01
(PID.TID 0000.0001) %MON dynstat_vvel_min             =  -1.0856151095743E-01
(PID.TID 0000.0001) %MON dynstat_vvel_mean            =   3.4241873028722E-03
(PID.TID 0000.0001) %MON dynstat_vvel_sd              =   1.4144963269600E-02
(PID.TID 0000.0001) %MON dynstat_vvel_del2            =   3.4732906085961E-03
(PID.TID 0000.0001) %MON dynstat_wvel_max             =   2.6186593241863E-04
(PID.TID 0000.0001) %MON dynstat_wvel_min             =  -3.5689328579728E-04
(PID.TID 0000.0001) %MON dynstat_wvel_mean            =   2.3487409032471E-21
(PID.TID 0000.0001) %MON dynstat_wvel_sd              =   3.2262966355448E-05
(PID.TID 0000.0001) %MON dynstat_wvel_del2            =   1.0810465232841E-05
(PID.TID 0000.0001) %MON dynstat_theta_max            =   2.9517575391879E+01
(PID.TID 0000.0001) %MON dynstat_theta_min            =  -2.1421634864903E+00
(PID.TID 0000.0001) %MON dynstat_theta_mean           =   3.5971590461413E+00
(PID.TID 0000.0001) %MON dynstat_theta_sd             =   4.3633598176315E+00
(PID.TID 0000.0001) %MON dynstat_theta_del2           =   1.4115853390164E-01
(PID.TID 0000.0001) %MON dynstat_salt_max             =   3.7422902905849E+01
(PID.TID 0000.0001) %MON dynstat_salt_min             =   2.9786489586123E+01
(PID.TID 0000.0001) %MON dynstat_salt_mean            =   3.4716234654123E+01
(PID.TID 0000.0001) %MON dynstat_salt_sd              =   2.9599167637620E-01
(PID.TID 0000.0001) %MON dynstat_salt_del2            =   2.6064685882204E-02
(PID.TID 0000.0001) %MON extforcing_qnet_max          =   4.1672046661377E+02
(PID.TID 0000.0001) %MON extforcing_qnet_min          =  -1.7822315216064E+02
(PID.TID 0000.0001) %MON extforcing_qnet_mean         =  -1.5875707245519E+01
(PID.TID 0000.0001) %MON extforcing_qnet_sd           =   1.0187328651100E+02
(PID.TID 0000.0001) %MON extforcing_qnet_del2         =   9.2966885862128E+00
(PID.TID 0000.0001) %MON extforcing_qsw_max           =   0.0000000000000E+00
(PID.TID 0000.0001) %MON extforcing_qsw_min           =   0.0000000000000E+00
(PID.TID 0000.0001) %MON extforcing_qsw_mean          =   0.0000000000000E+00
(PID.TID 0000.0001) %MON extforcing_qsw_sd            =   0.0000000000000E+00
(PID.TID 0000.0001) %MON extforcing_qsw_del2          =   0.0000000000000E+00
(PID.TID 0000.0001) %MON extforcing_empmr_max         =   0.0000000000000E+00
(PID.TID 0000.0001) %MON extforcing_empmr_min         =   0.0000000000000E+00
(PID.TID 0000.0001) %MON extforcing_empmr_mean        =   0.0000000000000E+00
(PID.TID 0000.0001) %MON extforcing_empmr_sd          =   0.0000000000000E+00
(PID.TID 0000.0001) %MON extforcing_empmr_del2        =   0.0000000000000E+00
(PID.TID 0000.0001) %MON extforcing_fu_max            =   2.7662305999547E-01
(PID.TID 0000.0001) %MON extforcing_fu_min            =  -1.7457388888579E-01
(PID.TID 0000.0001) %MON extforcing_fu_mean           =   1.7822934314345E-02
(PID.TID 0000.0001) %MON extforcing_fu_sd             =   8.7398540722105E-02
(PID.TID 0000.0001) %MON extforcing_fu_del2           =   7.4955311658894E-03
(PID.TID 0000.0001) %MON extforcing_fv_max            =   2.0686265511904E-01
(PID.TID 0000.0001) %MON extforcing_fv_min            =  -1.4074515312677E-01
(PID.TID 0000.0001) %MON extforcing_fv_mean           =  -9.8501978841376E-03
(PID.TID 0000.0001) %MON extforcing_fv_sd             =   3.7430974491561E-02
(PID.TID 0000.0001) %MON extforcing_fv_del2           =   3.4324624648664E-03
(PID.TID 0000.0001) %MON advcfl_uvel_max              =   2.7498416610214E-02
(PID.TID 0000.0001) %MON advcfl_vvel_max              =   1.4264922809142E-02
(PID.TID 0000.0001) %MON advcfl_wvel_max              =   1.6543038558604E-01
(PID.TID 0000.0001) %MON advcfl_W_hf_max              =   1.3698266583882E-01
(PID.TID 0000.0001) %MON pe_b_mean                    =   1.7392831460618E-04
(PID.TID 0000.0001) %MON ke_max                       =   1.1278549828803E-02
(PID.TID 0000.0001) %MON ke_mean                      =   2.7839496969401E-04
(PID.TID 0000.0001) %MON ke_vol                       =   1.3226782436723E+18
(PID.TID 0000.0001) %MON vort_r_min                   =  -3.9480551570564E-07
(PID.TID 0000.0001) %MON vort_r_max                   =   5.5880956064972E-07
(PID.TID 0000.0001) %MON vort_a_mean                  =  -2.5205769726982E-05
(PID.TID 0000.0001) %MON vort_a_sd                    =   7.3401256484516E-05
(PID.TID 0000.0001) %MON vort_p_mean                  =  -3.1758669977725E-05
(PID.TID 0000.0001) %MON vort_p_sd                    =   1.3125972353605E-04
(PID.TID 0000.0001) %MON surfExpan_theta_mean         =   8.6841967591525E-05
(PID.TID 0000.0001) %MON surfExpan_salt_mean          =   4.6083661626803E-06
(PID.TID 0000.0001) // =======================================================
(PID.TID 0000.0001) // End MONITOR dynamic field statistics
(PID.TID 0000.0001) // =======================================================
(PID.TID 0000.0001)  exf_GetFFieldsRec:
(PID.TID 0000.0001)  exf_GetFFieldsRec: first, changed, fac:   F   F   0.73333333E+00
(PID.TID 0000.0001)  exf_GetFFieldsRec: myiter, count0, count1:     16      1      2
(PID.TID 0000.0001)  exf_GetFFieldsRec:
(PID.TID 0000.0001)  exf_GetFFieldsRec:
(PID.TID 0000.0001)  exf_GetFFieldsRec: first, changed, fac:   F   F   0.73333333E+00
(PID.TID 0000.0001)  exf_GetFFieldsRec: myiter, count0, count1:     16      1      2
(PID.TID 0000.0001)  exf_GetFFieldsRec:
(PID.TID 0000.0001)  exf_GetFFieldsRec:
(PID.TID 0000.0001)  exf_GetFFieldsRec: first, changed, fac:   F   F   0.73333333E+00
(PID.TID 0000.0001)  exf_GetFFieldsRec: myiter, count0, count1:     16      1      2
(PID.TID 0000.0001)  exf_GetFFieldsRec:
(PID.TID 0000.0001)  exf_GetFFieldsRec:
(PID.TID 0000.0001)  exf_GetFFieldsRec: first, changed, fac:   F   F   0.73333333E+00
(PID.TID 0000.0001)  exf_GetFFieldsRec: myiter, count0, count1:     16      1      2
(PID.TID 0000.0001)  exf_GetFFieldsRec:
(PID.TID 0000.0001)  exf_GetFFieldsRec:
(PID.TID 0000.0001)  exf_GetFFieldsRec: first, changed, fac:   F   F   0.73333333E+00
(PID.TID 0000.0001)  exf_GetFFieldsRec: myiter, count0, count1:     16      1      2
(PID.TID 0000.0001)  exf_GetFFieldsRec:
(PID.TID 0000.0001) // =======================================================
(PID.TID 0000.0001) // Begin MONITOR EXF statistics
(PID.TID 0000.0001) // =======================================================
(PID.TID 0000.0001) %MON exf_tsnumber                 =                    16
(PID.TID 0000.0001) %MON exf_time_sec                 =   6.9120000000000E+05
(PID.TID 0000.0001) %MON exf_ustress_max              =   2.7771703451872E-01
(PID.TID 0000.0001) %MON exf_ustress_min              =  -1.7642321679741E-01
(PID.TID 0000.0001) %MON exf_ustress_mean             =   1.5848623516017E-02
(PID.TID 0000.0001) %MON exf_ustress_sd               =   8.7731151097209E-02
(PID.TID 0000.0001) %MON exf_ustress_del2             =   8.6379364303589E-03
(PID.TID 0000.0001) %MON exf_vstress_max              =   2.0584685547898E-01
(PID.TID 0000.0001) %MON exf_vstress_min              =  -1.6862743801127E-01
(PID.TID 0000.0001) %MON exf_vstress_mean             =  -5.6954232563625E-03
(PID.TID 0000.0001) %MON exf_vstress_sd               =   4.5400869269752E-02
(PID.TID 0000.0001) %MON exf_vstress_del2             =   5.0491967920227E-03
(PID.TID 0000.0001) %MON exf_hflux_max                =   4.1506092325846E+02
(PID.TID 0000.0001) %MON exf_hflux_min                =  -1.7810339253743E+02
(PID.TID 0000.0001) %MON exf_hflux_mean               =  -1.5833252661817E+01
(PID.TID 0000.0001) %MON exf_hflux_sd                 =   1.0134792828630E+02
(PID.TID 0000.0001) %MON exf_hflux_del2               =   9.2735900322905E+00
(PID.TID 0000.0001) %MON exf_sflux_max                =   0.0000000000000E+00
(PID.TID 0000.0001) %MON exf_sflux_min                =   0.0000000000000E+00
(PID.TID 0000.0001) %MON exf_sflux_mean               =   0.0000000000000E+00
(PID.TID 0000.0001) %MON exf_sflux_sd                 =   0.0000000000000E+00
(PID.TID 0000.0001) %MON exf_sflux_del2               =   0.0000000000000E+00
(PID.TID 0000.0001) %MON exf_wspeed_max               =   0.0000000000000E+00
(PID.TID 0000.0001) %MON exf_wspeed_min               =   0.0000000000000E+00
(PID.TID 0000.0001) %MON exf_wspeed_mean              =   0.0000000000000E+00
(PID.TID 0000.0001) %MON exf_wspeed_sd                =   0.0000000000000E+00
(PID.TID 0000.0001) %MON exf_wspeed_del2              =   0.0000000000000E+00
(PID.TID 0000.0001) %MON exf_swflux_max               =   0.0000000000000E+00
(PID.TID 0000.0001) %MON exf_swflux_min               =   0.0000000000000E+00
(PID.TID 0000.0001) %MON exf_swflux_mean              =   0.0000000000000E+00
(PID.TID 0000.0001) %MON exf_swflux_sd                =   0.0000000000000E+00
(PID.TID 0000.0001) %MON exf_swflux_del2              =   0.0000000000000E+00
(PID.TID 0000.0001) %MON exf_apressure_max            =   0.0000000000000E+00
(PID.TID 0000.0001) %MON exf_apressure_min            =   0.0000000000000E+00
(PID.TID 0000.0001) %MON exf_apressure_mean           =   0.0000000000000E+00
(PID.TID 0000.0001) %MON exf_apressure_sd             =   0.0000000000000E+00
(PID.TID 0000.0001) %MON exf_apressure_del2           =   0.0000000000000E+00
(PID.TID 0000.0001) %MON exf_climsst_max              =   2.9538012822469E+01
(PID.TID 0000.0001) %MON exf_climsst_min              =  -1.9000000000000E+00
(PID.TID 0000.0001) %MON exf_climsst_mean             =   1.8528603922986E+01
(PID.TID 0000.0001) %MON exf_climsst_sd               =   9.1747773633123E+00
(PID.TID 0000.0001) %MON exf_climsst_del2             =   2.6632448709087E-01
(PID.TID 0000.0001) %MON exf_climsss_max              =   3.7367833964030E+01
(PID.TID 0000.0001) %MON exf_climsss_min              =   2.9746223449707E+01
(PID.TID 0000.0001) %MON exf_climsss_mean             =   3.4849892808680E+01
(PID.TID 0000.0001) %MON exf_climsss_sd               =   9.6111263804301E-01
(PID.TID 0000.0001) %MON exf_climsss_del2             =   7.7029921282445E-02
(PID.TID 0000.0001) // =======================================================
(PID.TID 0000.0001) // End MONITOR EXF statistics
(PID.TID 0000.0001) // =======================================================
 cg2d: Sum(rhs),rhsMax =  -7.31859017832903E-13  1.01263325716696E+01
(PID.TID 0000.0001)                    cg2d_init_res =    8.23235517445291E-01
(PID.TID 0000.0001)                       cg2d_iters =    24
(PID.TID 0000.0001)                         cg2d_res =    6.77499928620175E-14
(PID.TID 0000.0001) // =======================================================
(PID.TID 0000.0001) // Begin MONITOR dynamic field statistics
(PID.TID 0000.0001) // =======================================================
(PID.TID 0000.0001) %MON time_tsnumber                =                    17
(PID.TID 0000.0001) %MON time_secondsf                =   7.3440000000000E+05
(PID.TID 0000.0001) %MON dynstat_eta_max              =   1.2206316194795E+00
(PID.TID 0000.0001) %MON dynstat_eta_min              =  -1.1607154008025E+00
(PID.TID 0000.0001) %MON dynstat_eta_mean             =   4.8089265547443E-16
(PID.TID 0000.0001) %MON dynstat_eta_sd               =   3.7496435569479E-01
(PID.TID 0000.0001) %MON dynstat_eta_del2             =   2.0706599098082E-02
(PID.TID 0000.0001) %MON dynstat_uvel_max             =   1.5966462956567E-01
(PID.TID 0000.0001) %MON dynstat_uvel_min             =  -1.3092102203298E-01
(PID.TID 0000.0001) %MON dynstat_uvel_mean            =  -1.0370199850711E-02
(PID.TID 0000.0001) %MON dynstat_uvel_sd              =   1.7656978360991E-02
(PID.TID 0000.0001) %MON dynstat_uvel_del2            =   3.6153940663909E-03
(PID.TID 0000.0001) %MON dynstat_vvel_max             =   1.5311238923547E-01
(PID.TID 0000.0001) %MON dynstat_vvel_min             =  -1.0894710609303E-01
(PID.TID 0000.0001) %MON dynstat_vvel_mean            =   3.0650959007315E-03
(PID.TID 0000.0001) %MON dynstat_vvel_sd              =   1.3932040849367E-02
(PID.TID 0000.0001) %MON dynstat_vvel_del2            =   3.4525376213614E-03
(PID.TID 0000.0001) %MON dynstat_wvel_max             =   2.6721083340555E-04
(PID.TID 0000.0001) %MON dynstat_wvel_min             =  -3.4620848347619E-04
(PID.TID 0000.0001) %MON dynstat_wvel_mean            =   1.6441186322730E-21
(PID.TID 0000.0001) %MON dynstat_wvel_sd              =   3.1055136726002E-05
(PID.TID 0000.0001) %MON dynstat_wvel_del2            =   1.0258683160897E-05
(PID.TID 0000.0001) %MON dynstat_theta_max            =   2.9481855079799E+01
(PID.TID 0000.0001) %MON dynstat_theta_min            =  -2.1245109416417E+00
(PID.TID 0000.0001) %MON dynstat_theta_mean           =   3.5963251974303E+00
(PID.TID 0000.0001) %MON dynstat_theta_sd             =   4.3603353786735E+00
(PID.TID 0000.0001) %MON dynstat_theta_del2           =   1.4085066484260E-01
(PID.TID 0000.0001) %MON dynstat_salt_max             =   3.7423320633953E+01
(PID.TID 0000.0001) %MON dynstat_salt_min             =   2.9786269703434E+01
(PID.TID 0000.0001) %MON dynstat_salt_mean            =   3.4716192201472E+01
(PID.TID 0000.0001) %MON dynstat_salt_sd              =   2.9595477318113E-01
(PID.TID 0000.0001) %MON dynstat_salt_del2            =   2.6063372974434E-02
(PID.TID 0000.0001) %MON extforcing_qnet_max          =   4.1506092325846E+02
(PID.TID 0000.0001) %MON extforcing_qnet_min          =  -1.7810339253743E+02
(PID.TID 0000.0001) %MON extforcing_qnet_mean         =  -1.5833252661817E+01
(PID.TID 0000.0001) %MON extforcing_qnet_sd           =   1.0134792828630E+02
(PID.TID 0000.0001) %MON extforcing_qnet_del2         =   9.2735900322905E+00
(PID.TID 0000.0001) %MON extforcing_qsw_max           =   0.0000000000000E+00
(PID.TID 0000.0001) %MON extforcing_qsw_min           =   0.0000000000000E+00
(PID.TID 0000.0001) %MON extforcing_qsw_mean          =   0.0000000000000E+00
(PID.TID 0000.0001) %MON extforcing_qsw_sd            =   0.0000000000000E+00
(PID.TID 0000.0001) %MON extforcing_qsw_del2          =   0.0000000000000E+00
(PID.TID 0000.0001) %MON extforcing_empmr_max         =   0.0000000000000E+00
(PID.TID 0000.0001) %MON extforcing_empmr_min         =   0.0000000000000E+00
(PID.TID 0000.0001) %MON extforcing_empmr_mean        =   0.0000000000000E+00
(PID.TID 0000.0001) %MON extforcing_empmr_sd          =   0.0000000000000E+00
(PID.TID 0000.0001) %MON extforcing_empmr_del2        =   0.0000000000000E+00
(PID.TID 0000.0001) %MON extforcing_fu_max            =   2.7659988906235E-01
(PID.TID 0000.0001) %MON extforcing_fu_min            =  -1.7538321297616E-01
(PID.TID 0000.0001) %MON extforcing_fu_mean           =   1.7886033104029E-02
(PID.TID 0000.0001) %MON extforcing_fu_sd             =   8.7423004171711E-02
(PID.TID 0000.0001) %MON extforcing_fu_del2           =   7.4859875416921E-03
(PID.TID 0000.0001) %MON extforcing_fv_max            =   2.0559124990056E-01
(PID.TID 0000.0001) %MON extforcing_fv_min            =  -1.4013240283045E-01
(PID.TID 0000.0001) %MON extforcing_fv_mean           =  -9.8572339872459E-03
(PID.TID 0000.0001) %MON extforcing_fv_sd             =   3.7400612930126E-02
(PID.TID 0000.0001) %MON extforcing_fv_del2           =   3.4262186374492E-03
(PID.TID 0000.0001) %MON advcfl_uvel_max              =   2.5241170210138E-02
(PID.TID 0000.0001) %MON advcfl_vvel_max              =   1.4873640800479E-02
(PID.TID 0000.0001) %MON advcfl_wvel_max              =   1.7365936383266E-01
(PID.TID 0000.0001) %MON advcfl_W_hf_max              =   1.4495869328737E-01
(PID.TID 0000.0001) %MON pe_b_mean                    =   1.7991243066650E-04
(PID.TID 0000.0001) %MON ke_max                       =   1.2054502179978E-02
(PID.TID 0000.0001) %MON ke_mean                      =   2.8185738004951E-04
(PID.TID 0000.0001) %MON ke_vol                       =   1.3226782436723E+18
(PID.TID 0000.0001) %MON vort_r_min                   =  -4.1806128249303E-07
(PID.TID 0000.0001) %MON vort_r_max                   =   5.1058419687762E-07
(PID.TID 0000.0001) %MON vort_a_mean                  =  -2.5205769665337E-05
(PID.TID 0000.0001) %MON vort_a_sd                    =   7.3401259910499E-05
(PID.TID 0000.0001) %MON vort_p_mean                  =  -3.1758669900054E-05
(PID.TID 0000.0001) %MON vort_p_sd                    =   1.3125972893719E-04
(PID.TID 0000.0001) %MON surfExpan_theta_mean         =   7.2354499687352E-05
(PID.TID 0000.0001) %MON surfExpan_salt_mean          =   3.2606227449365E-06
(PID.TID 0000.0001) // =======================================================
(PID.TID 0000.0001) // End MONITOR dynamic field statistics
(PID.TID 0000.0001) // =======================================================
(PID.TID 0000.0001)  exf_GetFFieldsRec:
(PID.TID 0000.0001)  exf_GetFFieldsRec: first, changed, fac:   F   F   0.71666667E+00
(PID.TID 0000.0001)  exf_GetFFieldsRec: myiter, count0, count1:     17      1      2
(PID.TID 0000.0001)  exf_GetFFieldsRec:
(PID.TID 0000.0001)  exf_GetFFieldsRec:
(PID.TID 0000.0001)  exf_GetFFieldsRec: first, changed, fac:   F   F   0.71666667E+00
(PID.TID 0000.0001)  exf_GetFFieldsRec: myiter, count0, count1:     17      1      2
(PID.TID 0000.0001)  exf_GetFFieldsRec:
(PID.TID 0000.0001)  exf_GetFFieldsRec:
(PID.TID 0000.0001)  exf_GetFFieldsRec: first, changed, fac:   F   F   0.71666667E+00
(PID.TID 0000.0001)  exf_GetFFieldsRec: myiter, count0, count1:     17      1      2
(PID.TID 0000.0001)  exf_GetFFieldsRec:
(PID.TID 0000.0001)  exf_GetFFieldsRec:
(PID.TID 0000.0001)  exf_GetFFieldsRec: first, changed, fac:   F   F   0.71666667E+00
(PID.TID 0000.0001)  exf_GetFFieldsRec: myiter, count0, count1:     17      1      2
(PID.TID 0000.0001)  exf_GetFFieldsRec:
(PID.TID 0000.0001)  exf_GetFFieldsRec:
(PID.TID 0000.0001)  exf_GetFFieldsRec: first, changed, fac:   F   F   0.71666667E+00
(PID.TID 0000.0001)  exf_GetFFieldsRec: myiter, count0, count1:     17      1      2
(PID.TID 0000.0001)  exf_GetFFieldsRec:
(PID.TID 0000.0001) // =======================================================
(PID.TID 0000.0001) // Begin MONITOR EXF statistics
(PID.TID 0000.0001) // =======================================================
(PID.TID 0000.0001) %MON exf_tsnumber                 =                    17
(PID.TID 0000.0001) %MON exf_time_sec                 =   7.3440000000000E+05
(PID.TID 0000.0001) %MON exf_ustress_max              =   2.7775311367586E-01
(PID.TID 0000.0001) %MON exf_ustress_min              =  -1.7732860934921E-01
(PID.TID 0000.0001) %MON exf_ustress_mean             =   1.5875180876809E-02
(PID.TID 0000.0001) %MON exf_ustress_sd               =   8.7704973316418E-02
(PID.TID 0000.0001) %MON exf_ustress_del2             =   8.6284688107827E-03
(PID.TID 0000.0001) %MON exf_vstress_max              =   2.0450255659719E-01
(PID.TID 0000.0001) %MON exf_vstress_min              =  -1.6796783076910E-01
(PID.TID 0000.0001) %MON exf_vstress_mean             =  -5.7258710577185E-03
(PID.TID 0000.0001) %MON exf_vstress_sd               =   4.5289215712787E-02
(PID.TID 0000.0001) %MON exf_vstress_del2             =   5.0384526686987E-03
(PID.TID 0000.0001) %MON exf_hflux_max                =   4.1340137990316E+02
(PID.TID 0000.0001) %MON exf_hflux_min                =  -1.7798363291423E+02
(PID.TID 0000.0001) %MON exf_hflux_mean               =  -1.5790798078116E+01
(PID.TID 0000.0001) %MON exf_hflux_sd                 =   1.0082365217737E+02
(PID.TID 0000.0001) %MON exf_hflux_del2               =   9.2507458064913E+00
(PID.TID 0000.0001) %MON exf_sflux_max                =   0.0000000000000E+00
(PID.TID 0000.0001) %MON exf_sflux_min                =   0.0000000000000E+00
(PID.TID 0000.0001) %MON exf_sflux_mean               =   0.0000000000000E+00
(PID.TID 0000.0001) %MON exf_sflux_sd                 =   0.0000000000000E+00
(PID.TID 0000.0001) %MON exf_sflux_del2               =   0.0000000000000E+00
(PID.TID 0000.0001) %MON exf_wspeed_max               =   0.0000000000000E+00
(PID.TID 0000.0001) %MON exf_wspeed_min               =   0.0000000000000E+00
(PID.TID 0000.0001) %MON exf_wspeed_mean              =   0.0000000000000E+00
(PID.TID 0000.0001) %MON exf_wspeed_sd                =   0.0000000000000E+00
(PID.TID 0000.0001) %MON exf_wspeed_del2              =   0.0000000000000E+00
(PID.TID 0000.0001) %MON exf_swflux_max               =   0.0000000000000E+00
(PID.TID 0000.0001) %MON exf_swflux_min               =   0.0000000000000E+00
(PID.TID 0000.0001) %MON exf_swflux_mean              =   0.0000000000000E+00
(PID.TID 0000.0001) %MON exf_swflux_sd                =   0.0000000000000E+00
(PID.TID 0000.0001) %MON exf_swflux_del2              =   0.0000000000000E+00
(PID.TID 0000.0001) %MON exf_apressure_max            =   0.0000000000000E+00
(PID.TID 0000.0001) %MON exf_apressure_min            =   0.0000000000000E+00
(PID.TID 0000.0001) %MON exf_apressure_mean           =   0.0000000000000E+00
(PID.TID 0000.0001) %MON exf_apressure_sd             =   0.0000000000000E+00
(PID.TID 0000.0001) %MON exf_apressure_del2           =   0.0000000000000E+00
(PID.TID 0000.0001) %MON exf_climsst_max              =   2.9525801817576E+01
(PID.TID 0000.0001) %MON exf_climsst_min              =  -1.9000000000000E+00
(PID.TID 0000.0001) %MON exf_climsst_mean             =   1.8531361712059E+01
(PID.TID 0000.0001) %MON exf_climsst_sd               =   9.1746064792026E+00
(PID.TID 0000.0001) %MON exf_climsst_del2             =   2.6549607278176E-01
(PID.TID 0000.0001) %MON exf_climsss_max              =   3.7366174443563E+01
(PID.TID 0000.0001) %MON exf_climsss_min              =   2.9745814323425E+01
(PID.TID 0000.0001) %MON exf_climsss_mean             =   3.4849890779522E+01
(PID.TID 0000.0001) %MON exf_climsss_sd               =   9.6109151557538E-01
(PID.TID 0000.0001) %MON exf_climsss_del2             =   7.6737492309362E-02
(PID.TID 0000.0001) // =======================================================
(PID.TID 0000.0001) // End MONITOR EXF statistics
(PID.TID 0000.0001) // =======================================================
 cg2d: Sum(rhs),rhsMax =  -8.18900502963515E-13  1.00035329358310E+01
(PID.TID 0000.0001)                    cg2d_init_res =    8.19862598248462E-01
(PID.TID 0000.0001)                       cg2d_iters =    25
(PID.TID 0000.0001)                         cg2d_res =    3.14856959619877E-14
(PID.TID 0000.0001) // =======================================================
(PID.TID 0000.0001) // Begin MONITOR dynamic field statistics
(PID.TID 0000.0001) // =======================================================
(PID.TID 0000.0001) %MON time_tsnumber                =                    18
(PID.TID 0000.0001) %MON time_secondsf                =   7.7760000000000E+05
(PID.TID 0000.0001) %MON dynstat_eta_max              =   1.2065946211509E+00
(PID.TID 0000.0001) %MON dynstat_eta_min              =  -1.1690238849906E+00
(PID.TID 0000.0001) %MON dynstat_eta_mean             =   4.3108268174355E-16
(PID.TID 0000.0001) %MON dynstat_eta_sd               =   3.7922038527861E-01
(PID.TID 0000.0001) %MON dynstat_eta_del2             =   2.0324074674252E-02
(PID.TID 0000.0001) %MON dynstat_uvel_max             =   1.6642159384235E-01
(PID.TID 0000.0001) %MON dynstat_uvel_min             =  -1.2566863307045E-01
(PID.TID 0000.0001) %MON dynstat_uvel_mean            =  -1.0164268880652E-02
(PID.TID 0000.0001) %MON dynstat_uvel_sd              =   1.8050741809988E-02
(PID.TID 0000.0001) %MON dynstat_uvel_del2            =   3.6500888846188E-03
(PID.TID 0000.0001) %MON dynstat_vvel_max             =   1.5486916986193E-01
(PID.TID 0000.0001) %MON dynstat_vvel_min             =  -1.1915602972722E-01
(PID.TID 0000.0001) %MON dynstat_vvel_mean            =   2.7394464545434E-03
(PID.TID 0000.0001) %MON dynstat_vvel_sd              =   1.3781570264074E-02
(PID.TID 0000.0001) %MON dynstat_vvel_del2            =   3.4312149154293E-03
(PID.TID 0000.0001) %MON dynstat_wvel_max             =   2.7027918450300E-04
(PID.TID 0000.0001) %MON dynstat_wvel_min             =  -3.3190593623384E-04
(PID.TID 0000.0001) %MON dynstat_wvel_mean            =   3.1003379922862E-21
(PID.TID 0000.0001) %MON dynstat_wvel_sd              =   2.9891323860049E-05
(PID.TID 0000.0001) %MON dynstat_wvel_del2            =   9.7179736904879E-06
(PID.TID 0000.0001) %MON dynstat_theta_max            =   2.9434663482099E+01
(PID.TID 0000.0001) %MON dynstat_theta_min            =  -2.1020215462488E+00
(PID.TID 0000.0001) %MON dynstat_theta_mean           =   3.5956541927072E+00
(PID.TID 0000.0001) %MON dynstat_theta_sd             =   4.3576418740783E+00
(PID.TID 0000.0001) %MON dynstat_theta_del2           =   1.4059448514611E-01
(PID.TID 0000.0001) %MON dynstat_salt_max             =   3.7423250588110E+01
(PID.TID 0000.0001) %MON dynstat_salt_min             =   2.9785972310659E+01
(PID.TID 0000.0001) %MON dynstat_salt_mean            =   3.4716164584779E+01
(PID.TID 0000.0001) %MON dynstat_salt_sd              =   2.9591923391348E-01
(PID.TID 0000.0001) %MON dynstat_salt_del2            =   2.6067020555618E-02
(PID.TID 0000.0001) %MON extforcing_qnet_max          =   4.1340137990316E+02
(PID.TID 0000.0001) %MON extforcing_qnet_min          =  -1.7798363291423E+02
(PID.TID 0000.0001) %MON extforcing_qnet_mean         =  -1.5790798078116E+01
(PID.TID 0000.0001) %MON extforcing_qnet_sd           =   1.0082365217737E+02
(PID.TID 0000.0001) %MON extforcing_qnet_del2         =   9.2507458064913E+00
(PID.TID 0000.0001) %MON extforcing_qsw_max           =   0.0000000000000E+00
(PID.TID 0000.0001) %MON extforcing_qsw_min           =   0.0000000000000E+00
(PID.TID 0000.0001) %MON extforcing_qsw_mean          =   0.0000000000000E+00
(PID.TID 0000.0001) %MON extforcing_qsw_sd            =   0.0000000000000E+00
(PID.TID 0000.0001) %MON extforcing_qsw_del2          =   0.0000000000000E+00
(PID.TID 0000.0001) %MON extforcing_empmr_max         =   0.0000000000000E+00
(PID.TID 0000.0001) %MON extforcing_empmr_min         =   0.0000000000000E+00
(PID.TID 0000.0001) %MON extforcing_empmr_mean        =   0.0000000000000E+00
(PID.TID 0000.0001) %MON extforcing_empmr_sd          =   0.0000000000000E+00
(PID.TID 0000.0001) %MON extforcing_empmr_del2        =   0.0000000000000E+00
(PID.TID 0000.0001) %MON extforcing_fu_max            =   2.7657671812922E-01
(PID.TID 0000.0001) %MON extforcing_fu_min            =  -1.7619253706653E-01
(PID.TID 0000.0001) %MON extforcing_fu_mean           =   1.7949131893713E-02
(PID.TID 0000.0001) %MON extforcing_fu_sd             =   8.7451636769053E-02
(PID.TID 0000.0001) %MON extforcing_fu_del2           =   7.4777148520996E-03
(PID.TID 0000.0001) %MON extforcing_fv_max            =   2.0431984468208E-01
(PID.TID 0000.0001) %MON extforcing_fv_min            =  -1.3951965253412E-01
(PID.TID 0000.0001) %MON extforcing_fv_mean           =  -9.8642700903542E-03
(PID.TID 0000.0001) %MON extforcing_fv_sd             =   3.7373314542665E-02
(PID.TID 0000.0001) %MON extforcing_fv_del2           =   3.4204056740099E-03
(PID.TID 0000.0001) %MON advcfl_uvel_max              =   2.3872643232345E-02
(PID.TID 0000.0001) %MON advcfl_vvel_max              =   1.5044297950653E-02
(PID.TID 0000.0001) %MON advcfl_wvel_max              =   1.7663114253410E-01
(PID.TID 0000.0001) %MON advcfl_W_hf_max              =   1.4801593687878E-01
(PID.TID 0000.0001) %MON pe_b_mean                    =   1.8401979832906E-04
(PID.TID 0000.0001) %MON ke_max                       =   1.2747731299022E-02
(PID.TID 0000.0001) %MON ke_mean                      =   2.8360332805503E-04
(PID.TID 0000.0001) %MON ke_vol                       =   1.3226782436723E+18
(PID.TID 0000.0001) %MON vort_r_min                   =  -4.4996293022878E-07
(PID.TID 0000.0001) %MON vort_r_max                   =   4.5041164965138E-07
(PID.TID 0000.0001) %MON vort_a_mean                  =  -2.5205769597809E-05
(PID.TID 0000.0001) %MON vort_a_sd                    =   7.3401287953626E-05
(PID.TID 0000.0001) %MON vort_p_mean                  =  -3.1758669814970E-05
(PID.TID 0000.0001) %MON vort_p_sd                    =   1.3125983477214E-04
(PID.TID 0000.0001) %MON surfExpan_theta_mean         =   5.8256765956107E-05
(PID.TID 0000.0001) %MON surfExpan_salt_mean          =   1.9863421020369E-06
(PID.TID 0000.0001) // =======================================================
(PID.TID 0000.0001) // End MONITOR dynamic field statistics
(PID.TID 0000.0001) // =======================================================
(PID.TID 0000.0001)  exf_GetFFieldsRec:
(PID.TID 0000.0001)  exf_GetFFieldsRec: first, changed, fac:   F   F   0.70000000E+00
(PID.TID 0000.0001)  exf_GetFFieldsRec: myiter, count0, count1:     18      1      2
(PID.TID 0000.0001)  exf_GetFFieldsRec:
(PID.TID 0000.0001)  exf_GetFFieldsRec:
(PID.TID 0000.0001)  exf_GetFFieldsRec: first, changed, fac:   F   F   0.70000000E+00
(PID.TID 0000.0001)  exf_GetFFieldsRec: myiter, count0, count1:     18      1      2
(PID.TID 0000.0001)  exf_GetFFieldsRec:
(PID.TID 0000.0001)  exf_GetFFieldsRec:
(PID.TID 0000.0001)  exf_GetFFieldsRec: first, changed, fac:   F   F   0.70000000E+00
(PID.TID 0000.0001)  exf_GetFFieldsRec: myiter, count0, count1:     18      1      2
(PID.TID 0000.0001)  exf_GetFFieldsRec:
(PID.TID 0000.0001)  exf_GetFFieldsRec:
(PID.TID 0000.0001)  exf_GetFFieldsRec: first, changed, fac:   F   F   0.70000000E+00
(PID.TID 0000.0001)  exf_GetFFieldsRec: myiter, count0, count1:     18      1      2
(PID.TID 0000.0001)  exf_GetFFieldsRec:
(PID.TID 0000.0001)  exf_GetFFieldsRec:
(PID.TID 0000.0001)  exf_GetFFieldsRec: first, changed, fac:   F   F   0.70000000E+00
(PID.TID 0000.0001)  exf_GetFFieldsRec: myiter, count0, count1:     18      1      2
(PID.TID 0000.0001)  exf_GetFFieldsRec:
(PID.TID 0000.0001) // =======================================================
(PID.TID 0000.0001) // Begin MONITOR EXF statistics
(PID.TID 0000.0001) // =======================================================
(PID.TID 0000.0001) %MON exf_tsnumber                 =                    18
(PID.TID 0000.0001) %MON exf_time_sec                 =   7.7760000000000E+05
(PID.TID 0000.0001) %MON exf_ustress_max              =   2.7778919283301E-01
(PID.TID 0000.0001) %MON exf_ustress_min              =  -1.7823400190100E-01
(PID.TID 0000.0001) %MON exf_ustress_mean             =   1.5901738237600E-02
(PID.TID 0000.0001) %MON exf_ustress_sd               =   8.7683099999355E-02
(PID.TID 0000.0001) %MON exf_ustress_del2             =   8.6205449207995E-03
(PID.TID 0000.0001) %MON exf_vstress_max              =   2.0315825771540E-01
(PID.TID 0000.0001) %MON exf_vstress_min              =  -1.6730822352692E-01
(PID.TID 0000.0001) %MON exf_vstress_mean             =  -5.7563188590745E-03
(PID.TID 0000.0001) %MON exf_vstress_sd               =   4.5181031394020E-02
(PID.TID 0000.0001) %MON exf_vstress_del2             =   5.0287359723334E-03
(PID.TID 0000.0001) %MON exf_hflux_max                =   4.1174183654785E+02
(PID.TID 0000.0001) %MON exf_hflux_min                =  -1.7786387329102E+02
(PID.TID 0000.0001) %MON exf_hflux_mean               =  -1.5748343494414E+01
(PID.TID 0000.0001) %MON exf_hflux_sd                 =   1.0030047515306E+02
(PID.TID 0000.0001) %MON exf_hflux_del2               =   9.2279944928483E+00
(PID.TID 0000.0001) %MON exf_sflux_max                =   0.0000000000000E+00
(PID.TID 0000.0001) %MON exf_sflux_min                =   0.0000000000000E+00
(PID.TID 0000.0001) %MON exf_sflux_mean               =   0.0000000000000E+00
(PID.TID 0000.0001) %MON exf_sflux_sd                 =   0.0000000000000E+00
(PID.TID 0000.0001) %MON exf_sflux_del2               =   0.0000000000000E+00
(PID.TID 0000.0001) %MON exf_wspeed_max               =   0.0000000000000E+00
(PID.TID 0000.0001) %MON exf_wspeed_min               =   0.0000000000000E+00
(PID.TID 0000.0001) %MON exf_wspeed_mean              =   0.0000000000000E+00
(PID.TID 0000.0001) %MON exf_wspeed_sd                =   0.0000000000000E+00
(PID.TID 0000.0001) %MON exf_wspeed_del2              =   0.0000000000000E+00
(PID.TID 0000.0001) %MON exf_swflux_max               =   0.0000000000000E+00
(PID.TID 0000.0001) %MON exf_swflux_min               =   0.0000000000000E+00
(PID.TID 0000.0001) %MON exf_swflux_mean              =   0.0000000000000E+00
(PID.TID 0000.0001) %MON exf_swflux_sd                =   0.0000000000000E+00
(PID.TID 0000.0001) %MON exf_swflux_del2              =   0.0000000000000E+00
(PID.TID 0000.0001) %MON exf_apressure_max            =   0.0000000000000E+00
(PID.TID 0000.0001) %MON exf_apressure_min            =   0.0000000000000E+00
(PID.TID 0000.0001) %MON exf_apressure_mean           =   0.0000000000000E+00
(PID.TID 0000.0001) %MON exf_apressure_sd             =   0.0000000000000E+00
(PID.TID 0000.0001) %MON exf_apressure_del2           =   0.0000000000000E+00
(PID.TID 0000.0001) %MON exf_climsst_max              =   2.9513590812683E+01
(PID.TID 0000.0001) %MON exf_climsst_min              =  -1.9000000000000E+00
(PID.TID 0000.0001) %MON exf_climsst_mean             =   1.8534128982947E+01
(PID.TID 0000.0001) %MON exf_climsst_sd               =   9.1744344351398E+00
(PID.TID 0000.0001) %MON exf_climsst_del2             =   2.6470790671941E-01
(PID.TID 0000.0001) %MON exf_climsss_max              =   3.7364514923096E+01
(PID.TID 0000.0001) %MON exf_climsss_min              =   2.9745405197144E+01
(PID.TID 0000.0001) %MON exf_climsss_mean             =   3.4849888750364E+01
(PID.TID 0000.0001) %MON exf_climsss_sd               =   9.6108511046166E-01
(PID.TID 0000.0001) %MON exf_climsss_del2             =   7.6461622884927E-02
(PID.TID 0000.0001) // =======================================================
(PID.TID 0000.0001) // End MONITOR EXF statistics
(PID.TID 0000.0001) // =======================================================
 cg2d: Sum(rhs),rhsMax =  -7.10542735760100E-13  9.69984571739667E+00
(PID.TID 0000.0001)                    cg2d_init_res =    8.32108559088706E-01
(PID.TID 0000.0001)                       cg2d_iters =    25
(PID.TID 0000.0001)                         cg2d_res =    3.02279593169068E-14
(PID.TID 0000.0001) // =======================================================
(PID.TID 0000.0001) // Begin MONITOR dynamic field statistics
(PID.TID 0000.0001) // =======================================================
(PID.TID 0000.0001) %MON time_tsnumber                =                    19
(PID.TID 0000.0001) %MON time_secondsf                =   8.2080000000000E+05
(PID.TID 0000.0001) %MON dynstat_eta_max              =   1.1716452802402E+00
(PID.TID 0000.0001) %MON dynstat_eta_min              =  -1.1417915084552E+00
(PID.TID 0000.0001) %MON dynstat_eta_mean             =   4.4919539946387E-16
(PID.TID 0000.0001) %MON dynstat_eta_sd               =   3.8169660191205E-01
(PID.TID 0000.0001) %MON dynstat_eta_del2             =   2.0044429287965E-02
(PID.TID 0000.0001) %MON dynstat_uvel_max             =   1.7196845109443E-01
(PID.TID 0000.0001) %MON dynstat_uvel_min             =  -1.2978545635108E-01
(PID.TID 0000.0001) %MON dynstat_uvel_mean            =  -9.8424177137390E-03
(PID.TID 0000.0001) %MON dynstat_uvel_sd              =   1.8347021914679E-02
(PID.TID 0000.0001) %MON dynstat_uvel_del2            =   3.6751871598590E-03
(PID.TID 0000.0001) %MON dynstat_vvel_max             =   1.5171263360011E-01
(PID.TID 0000.0001) %MON dynstat_vvel_min             =  -1.3279398392619E-01
(PID.TID 0000.0001) %MON dynstat_vvel_mean            =   2.4619658966886E-03
(PID.TID 0000.0001) %MON dynstat_vvel_sd              =   1.3691589358560E-02
(PID.TID 0000.0001) %MON dynstat_vvel_del2            =   3.4110460007099E-03
(PID.TID 0000.0001) %MON dynstat_wvel_max             =   2.7121648802060E-04
(PID.TID 0000.0001) %MON dynstat_wvel_min             =  -3.1458912896824E-04
(PID.TID 0000.0001) %MON dynstat_wvel_mean            =   1.8789927225977E-21
(PID.TID 0000.0001) %MON dynstat_wvel_sd              =   2.8827065590705E-05
(PID.TID 0000.0001) %MON dynstat_wvel_del2            =   9.2648093622093E-06
(PID.TID 0000.0001) %MON dynstat_theta_max            =   2.9421441607777E+01
(PID.TID 0000.0001) %MON dynstat_theta_min            =  -2.0866250500909E+00
(PID.TID 0000.0001) %MON dynstat_theta_mean           =   3.5951393666157E+00
(PID.TID 0000.0001) %MON dynstat_theta_sd             =   4.3553031164754E+00
(PID.TID 0000.0001) %MON dynstat_theta_del2           =   1.4036273612154E-01
(PID.TID 0000.0001) %MON dynstat_salt_max             =   3.7422780622820E+01
(PID.TID 0000.0001) %MON dynstat_salt_min             =   2.9785683399604E+01
(PID.TID 0000.0001) %MON dynstat_salt_mean            =   3.4716150802994E+01
(PID.TID 0000.0001) %MON dynstat_salt_sd              =   2.9588612919403E-01
(PID.TID 0000.0001) %MON dynstat_salt_del2            =   2.6074447922166E-02
(PID.TID 0000.0001) %MON extforcing_qnet_max          =   4.1174183654785E+02
(PID.TID 0000.0001) %MON extforcing_qnet_min          =  -1.7786387329102E+02
(PID.TID 0000.0001) %MON extforcing_qnet_mean         =  -1.5748343494414E+01
(PID.TID 0000.0001) %MON extforcing_qnet_sd           =   1.0030047515306E+02
(PID.TID 0000.0001) %MON extforcing_qnet_del2         =   9.2279944928483E+00
(PID.TID 0000.0001) %MON extforcing_qsw_max           =   0.0000000000000E+00
(PID.TID 0000.0001) %MON extforcing_qsw_min           =   0.0000000000000E+00
(PID.TID 0000.0001) %MON extforcing_qsw_mean          =   0.0000000000000E+00
(PID.TID 0000.0001) %MON extforcing_qsw_sd            =   0.0000000000000E+00
(PID.TID 0000.0001) %MON extforcing_qsw_del2          =   0.0000000000000E+00
(PID.TID 0000.0001) %MON extforcing_empmr_max         =   0.0000000000000E+00
(PID.TID 0000.0001) %MON extforcing_empmr_min         =   0.0000000000000E+00
(PID.TID 0000.0001) %MON extforcing_empmr_mean        =   0.0000000000000E+00
(PID.TID 0000.0001) %MON extforcing_empmr_sd          =   0.0000000000000E+00
(PID.TID 0000.0001) %MON extforcing_empmr_del2        =   0.0000000000000E+00
(PID.TID 0000.0001) %MON extforcing_fu_max            =   2.7655354719609E-01
(PID.TID 0000.0001) %MON extforcing_fu_min            =  -1.7700186115690E-01
(PID.TID 0000.0001) %MON extforcing_fu_mean           =   1.8012230683397E-02
(PID.TID 0000.0001) %MON extforcing_fu_sd             =   8.7484434420594E-02
(PID.TID 0000.0001) %MON extforcing_fu_del2           =   7.4704144393223E-03
(PID.TID 0000.0001) %MON extforcing_fv_max            =   2.0304843946360E-01
(PID.TID 0000.0001) %MON extforcing_fv_min            =  -1.3890690223780E-01
(PID.TID 0000.0001) %MON extforcing_fv_mean           =  -9.8713061934625E-03
(PID.TID 0000.0001) %MON extforcing_fv_sd             =   3.7349086045786E-02
(PID.TID 0000.0001) %MON extforcing_fv_del2           =   3.4152257070684E-03
(PID.TID 0000.0001) %MON advcfl_uvel_max              =   2.4267642611611E-02
(PID.TID 0000.0001) %MON advcfl_vvel_max              =   1.4737665765195E-02
(PID.TID 0000.0001) %MON advcfl_wvel_max              =   1.7371607560777E-01
(PID.TID 0000.0001) %MON advcfl_W_hf_max              =   1.5271375344603E-01
(PID.TID 0000.0001) %MON pe_b_mean                    =   1.8643085332325E-04
(PID.TID 0000.0001) %MON ke_max                       =   1.3504706145065E-02
(PID.TID 0000.0001) %MON ke_mean                      =   2.8381944474135E-04
(PID.TID 0000.0001) %MON ke_vol                       =   1.3226782436723E+18
(PID.TID 0000.0001) %MON vort_r_min                   =  -4.7019259774191E-07
(PID.TID 0000.0001) %MON vort_r_max                   =   4.0344591605325E-07
(PID.TID 0000.0001) %MON vort_a_mean                  =  -2.5205769531885E-05
(PID.TID 0000.0001) %MON vort_a_sd                    =   7.3401338381372E-05
(PID.TID 0000.0001) %MON vort_p_mean                  =  -3.1758669731908E-05
(PID.TID 0000.0001) %MON vort_p_sd                    =   1.3126002665800E-04
(PID.TID 0000.0001) %MON surfExpan_theta_mean         =   4.4855663506946E-05
(PID.TID 0000.0001) %MON surfExpan_salt_mean          =   8.0780360558111E-07
(PID.TID 0000.0001) // =======================================================
(PID.TID 0000.0001) // End MONITOR dynamic field statistics
(PID.TID 0000.0001) // =======================================================
(PID.TID 0000.0001)  exf_GetFFieldsRec:
(PID.TID 0000.0001)  exf_GetFFieldsRec: first, changed, fac:   F   F   0.68333333E+00
(PID.TID 0000.0001)  exf_GetFFieldsRec: myiter, count0, count1:     19      1      2
(PID.TID 0000.0001)  exf_GetFFieldsRec:
(PID.TID 0000.0001)  exf_GetFFieldsRec:
(PID.TID 0000.0001)  exf_GetFFieldsRec: first, changed, fac:   F   F   0.68333333E+00
(PID.TID 0000.0001)  exf_GetFFieldsRec: myiter, count0, count1:     19      1      2
(PID.TID 0000.0001)  exf_GetFFieldsRec:
(PID.TID 0000.0001)  exf_GetFFieldsRec:
(PID.TID 0000.0001)  exf_GetFFieldsRec: first, changed, fac:   F   F   0.68333333E+00
(PID.TID 0000.0001)  exf_GetFFieldsRec: myiter, count0, count1:     19      1      2
(PID.TID 0000.0001)  exf_GetFFieldsRec:
(PID.TID 0000.0001)  exf_GetFFieldsRec:
(PID.TID 0000.0001)  exf_GetFFieldsRec: first, changed, fac:   F   F   0.68333333E+00
(PID.TID 0000.0001)  exf_GetFFieldsRec: myiter, count0, count1:     19      1      2
(PID.TID 0000.0001)  exf_GetFFieldsRec:
(PID.TID 0000.0001)  exf_GetFFieldsRec:
(PID.TID 0000.0001)  exf_GetFFieldsRec: first, changed, fac:   F   F   0.68333333E+00
(PID.TID 0000.0001)  exf_GetFFieldsRec: myiter, count0, count1:     19      1      2
(PID.TID 0000.0001)  exf_GetFFieldsRec:
(PID.TID 0000.0001) // =======================================================
(PID.TID 0000.0001) // Begin MONITOR EXF statistics
(PID.TID 0000.0001) // =======================================================
(PID.TID 0000.0001) %MON exf_tsnumber                 =                    19
(PID.TID 0000.0001) %MON exf_time_sec                 =   8.2080000000000E+05
(PID.TID 0000.0001) %MON exf_ustress_max              =   2.7782527199015E-01
(PID.TID 0000.0001) %MON exf_ustress_min              =  -1.7913939445280E-01
(PID.TID 0000.0001) %MON exf_ustress_mean             =   1.5928295598392E-02
(PID.TID 0000.0001) %MON exf_ustress_sd               =   8.7665534368026E-02
(PID.TID 0000.0001) %MON exf_ustress_del2             =   8.6134885910081E-03
(PID.TID 0000.0001) %MON exf_vstress_max              =   2.0181395883361E-01
(PID.TID 0000.0001) %MON exf_vstress_min              =  -1.6664861628475E-01
(PID.TID 0000.0001) %MON exf_vstress_mean             =  -5.7867666604305E-03
(PID.TID 0000.0001) %MON exf_vstress_sd               =   4.5076341292227E-02
(PID.TID 0000.0001) %MON exf_vstress_del2             =   5.0199533358369E-03
(PID.TID 0000.0001) %MON exf_hflux_max                =   4.1008229319255E+02
(PID.TID 0000.0001) %MON exf_hflux_min                =  -1.7774411366781E+02
(PID.TID 0000.0001) %MON exf_hflux_mean               =  -1.5705888910712E+01
(PID.TID 0000.0001) %MON exf_hflux_sd                 =   9.9778414502147E+01
(PID.TID 0000.0001) %MON exf_hflux_del2               =   9.2053397860092E+00
(PID.TID 0000.0001) %MON exf_sflux_max                =   0.0000000000000E+00
(PID.TID 0000.0001) %MON exf_sflux_min                =   0.0000000000000E+00
(PID.TID 0000.0001) %MON exf_sflux_mean               =   0.0000000000000E+00
(PID.TID 0000.0001) %MON exf_sflux_sd                 =   0.0000000000000E+00
(PID.TID 0000.0001) %MON exf_sflux_del2               =   0.0000000000000E+00
(PID.TID 0000.0001) %MON exf_wspeed_max               =   0.0000000000000E+00
(PID.TID 0000.0001) %MON exf_wspeed_min               =   0.0000000000000E+00
(PID.TID 0000.0001) %MON exf_wspeed_mean              =   0.0000000000000E+00
(PID.TID 0000.0001) %MON exf_wspeed_sd                =   0.0000000000000E+00
(PID.TID 0000.0001) %MON exf_wspeed_del2              =   0.0000000000000E+00
(PID.TID 0000.0001) %MON exf_swflux_max               =   0.0000000000000E+00
(PID.TID 0000.0001) %MON exf_swflux_min               =   0.0000000000000E+00
(PID.TID 0000.0001) %MON exf_swflux_mean              =   0.0000000000000E+00
(PID.TID 0000.0001) %MON exf_swflux_sd                =   0.0000000000000E+00
(PID.TID 0000.0001) %MON exf_swflux_del2              =   0.0000000000000E+00
(PID.TID 0000.0001) %MON exf_apressure_max            =   0.0000000000000E+00
(PID.TID 0000.0001) %MON exf_apressure_min            =   0.0000000000000E+00
(PID.TID 0000.0001) %MON exf_apressure_mean           =   0.0000000000000E+00
(PID.TID 0000.0001) %MON exf_apressure_sd             =   0.0000000000000E+00
(PID.TID 0000.0001) %MON exf_apressure_del2           =   0.0000000000000E+00
(PID.TID 0000.0001) %MON exf_climsst_max              =   2.9504275449117E+01
(PID.TID 0000.0001) %MON exf_climsst_min              =  -1.9000000000000E+00
(PID.TID 0000.0001) %MON exf_climsst_mean             =   1.8536897716092E+01
(PID.TID 0000.0001) %MON exf_climsst_sd               =   9.1742790677830E+00
(PID.TID 0000.0001) %MON exf_climsst_del2             =   2.6398217397436E-01
(PID.TID 0000.0001) %MON exf_climsss_max              =   3.7362855402629E+01
(PID.TID 0000.0001) %MON exf_climsss_min              =   2.9744996070862E+01
(PID.TID 0000.0001) %MON exf_climsss_mean             =   3.4849886721206E+01
(PID.TID 0000.0001) %MON exf_climsss_sd               =   9.6109342299612E-01
(PID.TID 0000.0001) %MON exf_climsss_del2             =   7.6206556756862E-02
(PID.TID 0000.0001) // =======================================================
(PID.TID 0000.0001) // End MONITOR EXF statistics
(PID.TID 0000.0001) // =======================================================
 cg2d: Sum(rhs),rhsMax =  -7.31859017832903E-13  9.47041169879713E+00
(PID.TID 0000.0001)                    cg2d_init_res =    8.37563269002106E-01
(PID.TID 0000.0001)                       cg2d_iters =    25
(PID.TID 0000.0001)                         cg2d_res =    3.44481740979974E-14
(PID.TID 0000.0001) // =======================================================
(PID.TID 0000.0001) // Begin MONITOR dynamic field statistics
(PID.TID 0000.0001) // =======================================================
(PID.TID 0000.0001) %MON time_tsnumber                =                    20
(PID.TID 0000.0001) %MON time_secondsf                =   8.6400000000000E+05
(PID.TID 0000.0001) %MON dynstat_eta_max              =   1.1364029181727E+00
(PID.TID 0000.0001) %MON dynstat_eta_min              =  -1.0837922275508E+00
(PID.TID 0000.0001) %MON dynstat_eta_mean             =   4.9447719376466E-16
(PID.TID 0000.0001) %MON dynstat_eta_sd               =   3.8266377144003E-01
(PID.TID 0000.0001) %MON dynstat_eta_del2             =   1.9967939069949E-02
(PID.TID 0000.0001) %MON dynstat_uvel_max             =   1.7621284755049E-01
(PID.TID 0000.0001) %MON dynstat_uvel_min             =  -1.3546114851149E-01
(PID.TID 0000.0001) %MON dynstat_uvel_mean            =  -9.4213400079723E-03
(PID.TID 0000.0001) %MON dynstat_uvel_sd              =   1.8554787466771E-02
(PID.TID 0000.0001) %MON dynstat_uvel_del2            =   3.6906465738848E-03
(PID.TID 0000.0001) %MON dynstat_vvel_max             =   1.4349380714018E-01
(PID.TID 0000.0001) %MON dynstat_vvel_min             =  -1.4379569483386E-01
(PID.TID 0000.0001) %MON dynstat_vvel_mean            =   2.2434627398150E-03
(PID.TID 0000.0001) %MON dynstat_vvel_sd              =   1.3653797778410E-02
(PID.TID 0000.0001) %MON dynstat_vvel_del2            =   3.3952771673446E-03
(PID.TID 0000.0001) %MON dynstat_wvel_max             =   2.7027624140195E-04
(PID.TID 0000.0001) %MON dynstat_wvel_min             =  -2.9469688653903E-04
(PID.TID 0000.0001) %MON dynstat_wvel_mean            =  -2.3487409032471E-21
(PID.TID 0000.0001) %MON dynstat_wvel_sd              =   2.7905991339928E-05
(PID.TID 0000.0001) %MON dynstat_wvel_del2            =   8.9346546475936E-06
(PID.TID 0000.0001) %MON dynstat_theta_max            =   2.9409080141320E+01
(PID.TID 0000.0001) %MON dynstat_theta_min            =  -2.0836993413187E+00
(PID.TID 0000.0001) %MON dynstat_theta_mean           =   3.5947707816735E+00
(PID.TID 0000.0001) %MON dynstat_theta_sd             =   4.3533350786075E+00
(PID.TID 0000.0001) %MON dynstat_theta_del2           =   1.4015748221006E-01
(PID.TID 0000.0001) %MON dynstat_salt_max             =   3.7422041339981E+01
(PID.TID 0000.0001) %MON dynstat_salt_min             =   2.9785483736522E+01
(PID.TID 0000.0001) %MON dynstat_salt_mean            =   3.4716149625376E+01
(PID.TID 0000.0001) %MON dynstat_salt_sd              =   2.9585603766184E-01
(PID.TID 0000.0001) %MON dynstat_salt_del2            =   2.6083659017670E-02
(PID.TID 0000.0001) %MON extforcing_qnet_max          =   4.1008229319255E+02
(PID.TID 0000.0001) %MON extforcing_qnet_min          =  -1.7774411366781E+02
(PID.TID 0000.0001) %MON extforcing_qnet_mean         =  -1.5705888910712E+01
(PID.TID 0000.0001) %MON extforcing_qnet_sd           =   9.9778414502147E+01
(PID.TID 0000.0001) %MON extforcing_qnet_del2         =   9.2053397860092E+00
(PID.TID 0000.0001) %MON extforcing_qsw_max           =   0.0000000000000E+00
(PID.TID 0000.0001) %MON extforcing_qsw_min           =   0.0000000000000E+00
(PID.TID 0000.0001) %MON extforcing_qsw_mean          =   0.0000000000000E+00
(PID.TID 0000.0001) %MON extforcing_qsw_sd            =   0.0000000000000E+00
(PID.TID 0000.0001) %MON extforcing_qsw_del2          =   0.0000000000000E+00
(PID.TID 0000.0001) %MON extforcing_empmr_max         =   0.0000000000000E+00
(PID.TID 0000.0001) %MON extforcing_empmr_min         =   0.0000000000000E+00
(PID.TID 0000.0001) %MON extforcing_empmr_mean        =   0.0000000000000E+00
(PID.TID 0000.0001) %MON extforcing_empmr_sd          =   0.0000000000000E+00
(PID.TID 0000.0001) %MON extforcing_empmr_del2        =   0.0000000000000E+00
(PID.TID 0000.0001) %MON extforcing_fu_max            =   2.7653037626296E-01
(PID.TID 0000.0001) %MON extforcing_fu_min            =  -1.7781118524726E-01
(PID.TID 0000.0001) %MON extforcing_fu_mean           =   1.8075329473081E-02
(PID.TID 0000.0001) %MON extforcing_fu_sd             =   8.7521392443915E-02
(PID.TID 0000.0001) %MON extforcing_fu_del2           =   7.4637848360717E-03
(PID.TID 0000.0001) %MON extforcing_fv_max            =   2.0177703424512E-01
(PID.TID 0000.0001) %MON extforcing_fv_min            =  -1.3829415194147E-01
(PID.TID 0000.0001) %MON extforcing_fv_mean           =  -9.8783422965707E-03
(PID.TID 0000.0001) %MON extforcing_fv_sd             =   3.7327933417224E-02
(PID.TID 0000.0001) %MON extforcing_fv_del2           =   3.4107954628094E-03
(PID.TID 0000.0001) %MON advcfl_uvel_max              =   2.4641846712462E-02
(PID.TID 0000.0001) %MON advcfl_vvel_max              =   1.3968598650270E-02
(PID.TID 0000.0001) %MON advcfl_wvel_max              =   1.6457401633255E-01
(PID.TID 0000.0001) %MON advcfl_W_hf_max              =   1.4699815886933E-01
(PID.TID 0000.0001) %MON pe_b_mean                    =   1.8737683335477E-04
(PID.TID 0000.0001) %MON ke_max                       =   1.4266407155854E-02
(PID.TID 0000.0001) %MON ke_mean                      =   2.8269191779486E-04
(PID.TID 0000.0001) %MON ke_vol                       =   1.3226782436723E+18
(PID.TID 0000.0001) %MON vort_r_min                   =  -4.7749784167605E-07
(PID.TID 0000.0001) %MON vort_r_max                   =   4.1119858735114E-07
(PID.TID 0000.0001) %MON vort_a_mean                  =  -2.5205769473862E-05
(PID.TID 0000.0001) %MON vort_a_sd                    =   7.3401408492550E-05
(PID.TID 0000.0001) %MON vort_p_mean                  =  -3.1758669658799E-05
(PID.TID 0000.0001) %MON vort_p_sd                    =   1.3126028765210E-04
(PID.TID 0000.0001) %MON surfExpan_theta_mean         =   3.2426134599731E-05
(PID.TID 0000.0001) %MON surfExpan_salt_mean          =  -2.5532637638690E-07
(PID.TID 0000.0001) // =======================================================
(PID.TID 0000.0001) // End MONITOR dynamic field statistics
(PID.TID 0000.0001) // =======================================================
(PID.TID 0000.0001) // Time-average data written, t-step        20
(PID.TID 0000.0001) 
(PID.TID 0000.0001) %CHECKPOINT        20 ckptA
(PID.TID 0000.0001)   Seconds in section "ALL                    [THE_MODEL_MAIN]":
(PID.TID 0000.0001)           User time:  32.1741098
(PID.TID 0000.0001)         System time:  0.423935987
(PID.TID 0000.0001)     Wall clock time:  36.8751271
(PID.TID 0000.0001)          No. starts: 1
(PID.TID 0000.0001)           No. stops: 1
(PID.TID 0000.0001)   Seconds in section "INITIALISE_FIXED       [THE_MODEL_MAIN]":
(PID.TID 0000.0001)           User time:  1.37279105
(PID.TID 0000.0001)         System time:  0.253961005
(PID.TID 0000.0001)     Wall clock time:  2.06386709
(PID.TID 0000.0001)          No. starts: 1
(PID.TID 0000.0001)           No. stops: 1
(PID.TID 0000.0001)   Seconds in section "THE_MAIN_LOOP          [THE_MODEL_MAIN]":
(PID.TID 0000.0001)           User time:  30.6053476
(PID.TID 0000.0001)         System time:  0.151977003
(PID.TID 0000.0001)     Wall clock time:  32.1908469
(PID.TID 0000.0001)          No. starts: 1
(PID.TID 0000.0001)           No. stops: 1
(PID.TID 0000.0001)   Seconds in section "INITIALISE_VARIA    [THE_MAIN_LOOP]":
(PID.TID 0000.0001)           User time:  0.568913937
(PID.TID 0000.0001)         System time:  0.0469929874
(PID.TID 0000.0001)     Wall clock time:  0.919309855
(PID.TID 0000.0001)          No. starts: 1
(PID.TID 0000.0001)           No. stops: 1
(PID.TID 0000.0001)   Seconds in section "MAIN LOOP           [THE_MAIN_LOOP]":
(PID.TID 0000.0001)           User time:  30.0364337
(PID.TID 0000.0001)         System time:  0.104984015
(PID.TID 0000.0001)     Wall clock time:  31.2714119
(PID.TID 0000.0001)          No. starts: 1
(PID.TID 0000.0001)           No. stops: 1
(PID.TID 0000.0001)   Seconds in section "FORWARD_STEP        [THE_MAIN_LOOP]":
(PID.TID 0000.0001)           User time:  30.0074363
(PID.TID 0000.0001)         System time:  0.104984015
(PID.TID 0000.0001)     Wall clock time:  31.2434373
(PID.TID 0000.0001)          No. starts: 20
(PID.TID 0000.0001)           No. stops: 20
(PID.TID 0000.0001)   Seconds in section "DO_STATEVARS_DIAGS  [FORWARD_STEP]":
(PID.TID 0000.0001)           User time:  0.00899744034
(PID.TID 0000.0001)         System time:  0.
(PID.TID 0000.0001)     Wall clock time:  0.00911855698
(PID.TID 0000.0001)          No. starts: 40
(PID.TID 0000.0001)           No. stops: 40
(PID.TID 0000.0001)   Seconds in section "PROFILES_INLOOP    [THE_MAIN_LOOP]":
(PID.TID 0000.0001)           User time:  0.755886555
(PID.TID 0000.0001)         System time:  0.0109979808
(PID.TID 0000.0001)     Wall clock time:  0.827241421
(PID.TID 0000.0001)          No. starts: 21
(PID.TID 0000.0001)           No. stops: 21
(PID.TID 0000.0001)   Seconds in section "LOAD_FIELDS_DRIVER  [FORWARD_STEP]":
(PID.TID 0000.0001)           User time:  0.593912721
(PID.TID 0000.0001)         System time:  0.00599998236
(PID.TID 0000.0001)     Wall clock time:  0.652897596
(PID.TID 0000.0001)          No. starts: 20
(PID.TID 0000.0001)           No. stops: 20
(PID.TID 0000.0001)   Seconds in section "EXF_GETFORCING     [LOAD_FLDS_DRIVER]":
(PID.TID 0000.0001)           User time:  0.591913342
(PID.TID 0000.0001)         System time:  0.00599998236
(PID.TID 0000.0001)     Wall clock time:  0.651179314
(PID.TID 0000.0001)          No. starts: 20
(PID.TID 0000.0001)           No. stops: 20
(PID.TID 0000.0001)   Seconds in section "DO_ATMOSPHERIC_PHYS [FORWARD_STEP]":
(PID.TID 0000.0001)           User time:  0.
(PID.TID 0000.0001)         System time:  0.
(PID.TID 0000.0001)     Wall clock time:  0.000821828842
(PID.TID 0000.0001)          No. starts: 20
(PID.TID 0000.0001)           No. stops: 20
(PID.TID 0000.0001)   Seconds in section "DO_OCEANIC_PHYS     [FORWARD_STEP]":
(PID.TID 0000.0001)           User time:  2.97954512
(PID.TID 0000.0001)         System time:  0.0039999783
(PID.TID 0000.0001)     Wall clock time:  2.98760223
(PID.TID 0000.0001)          No. starts: 20
(PID.TID 0000.0001)           No. stops: 20
(PID.TID 0000.0001)   Seconds in section "THERMODYNAMICS      [FORWARD_STEP]":
(PID.TID 0000.0001)           User time:  7.25589871
(PID.TID 0000.0001)         System time:  0.0119980276
(PID.TID 0000.0001)     Wall clock time:  7.27015853
(PID.TID 0000.0001)          No. starts: 20
(PID.TID 0000.0001)           No. stops: 20
(PID.TID 0000.0001)   Seconds in section "DYNAMICS            [FORWARD_STEP]":
(PID.TID 0000.0001)           User time:  10.26244
(PID.TID 0000.0001)         System time:  0.00999802351
(PID.TID 0000.0001)     Wall clock time:  10.2754374
(PID.TID 0000.0001)          No. starts: 20
(PID.TID 0000.0001)           No. stops: 20
(PID.TID 0000.0001)   Seconds in section "SOLVE_FOR_PRESSURE  [FORWARD_STEP]":
(PID.TID 0000.0001)           User time:  1.38078642
(PID.TID 0000.0001)         System time:  0.00299999118
(PID.TID 0000.0001)     Wall clock time:  1.38480806
(PID.TID 0000.0001)          No. starts: 20
(PID.TID 0000.0001)           No. stops: 20
(PID.TID 0000.0001)   Seconds in section "MOM_CORRECTION_STEP [FORWARD_STEP]":
(PID.TID 0000.0001)           User time:  0.527922392
(PID.TID 0000.0001)         System time:  0.
(PID.TID 0000.0001)     Wall clock time:  0.527872562
(PID.TID 0000.0001)          No. starts: 20
(PID.TID 0000.0001)           No. stops: 20
(PID.TID 0000.0001)   Seconds in section "TRC_CORRECTION_STEP [FORWARD_STEP]":
(PID.TID 0000.0001)           User time:  0.151977062
(PID.TID 0000.0001)         System time:  0.
(PID.TID 0000.0001)     Wall clock time:  0.154859543
(PID.TID 0000.0001)          No. starts: 20
(PID.TID 0000.0001)           No. stops: 20
(PID.TID 0000.0001)   Seconds in section "BLOCKING_EXCHANGES  [FORWARD_STEP]":
(PID.TID 0000.0001)           User time:  0.134974957
(PID.TID 0000.0001)         System time:  0.
(PID.TID 0000.0001)     Wall clock time:  0.136312008
(PID.TID 0000.0001)          No. starts: 20
(PID.TID 0000.0001)           No. stops: 20
(PID.TID 0000.0001)   Seconds in section "DO_STATEVARS_TAVE   [FORWARD_STEP]":
(PID.TID 0000.0001)           User time:  2.10767579
(PID.TID 0000.0001)         System time:  0.00299999118
(PID.TID 0000.0001)     Wall clock time:  2.1085124
(PID.TID 0000.0001)          No. starts: 20
(PID.TID 0000.0001)           No. stops: 20
(PID.TID 0000.0001)   Seconds in section "MONITOR             [FORWARD_STEP]":
(PID.TID 0000.0001)           User time:  3.27150941
(PID.TID 0000.0001)         System time:  0.0029990375
(PID.TID 0000.0001)     Wall clock time:  3.27616143
(PID.TID 0000.0001)          No. starts: 20
(PID.TID 0000.0001)           No. stops: 20
(PID.TID 0000.0001)   Seconds in section "DO_THE_MODEL_IO     [FORWARD_STEP]":
(PID.TID 0000.0001)           User time:  0.582910538
(PID.TID 0000.0001)         System time:  0.0519910157
(PID.TID 0000.0001)     Wall clock time:  1.64276791
(PID.TID 0000.0001)          No. starts: 20
(PID.TID 0000.0001)           No. stops: 20
(PID.TID 0000.0001)   Seconds in section "DO_WRITE_PICKUP     [FORWARD_STEP]":
(PID.TID 0000.0001)           User time:  0.000997543335
(PID.TID 0000.0001)         System time:  0.
(PID.TID 0000.0001)     Wall clock time:  0.000869512558
(PID.TID 0000.0001)          No. starts: 20
(PID.TID 0000.0001)           No. stops: 20
(PID.TID 0000.0001)   Seconds in section "DO_WRITE_PICKUP        [THE_MODEL_MAIN]":
(PID.TID 0000.0001)           User time:  0.194971085
(PID.TID 0000.0001)         System time:  0.0179979801
(PID.TID 0000.0001)     Wall clock time:  2.62023401
(PID.TID 0000.0001)          No. starts: 1
(PID.TID 0000.0001)           No. stops: 1
(PID.TID 0000.0001) // ======================================================
(PID.TID 0000.0001) // Tile <-> Tile communication statistics
(PID.TID 0000.0001) // ======================================================
(PID.TID 0000.0001) // o Tile number: 000001
(PID.TID 0000.0001) //         No. X exchanges =              0
(PID.TID 0000.0001) //            Max. X spins =              0
(PID.TID 0000.0001) //            Min. X spins =     1000000000
(PID.TID 0000.0001) //          Total. X spins =              0
(PID.TID 0000.0001) //            Avg. X spins =       0.00E+00
(PID.TID 0000.0001) //         No. Y exchanges =              0
(PID.TID 0000.0001) //            Max. Y spins =              0
(PID.TID 0000.0001) //            Min. Y spins =     1000000000
(PID.TID 0000.0001) //          Total. Y spins =              0
(PID.TID 0000.0001) //            Avg. Y spins =       0.00E+00
(PID.TID 0000.0001) // o Tile number: 000002
(PID.TID 0000.0001) //         No. X exchanges =              0
(PID.TID 0000.0001) //            Max. X spins =              0
(PID.TID 0000.0001) //            Min. X spins =     1000000000
(PID.TID 0000.0001) //          Total. X spins =              0
(PID.TID 0000.0001) //            Avg. X spins =       0.00E+00
(PID.TID 0000.0001) //         No. Y exchanges =              0
(PID.TID 0000.0001) //            Max. Y spins =              0
(PID.TID 0000.0001) //            Min. Y spins =     1000000000
(PID.TID 0000.0001) //          Total. Y spins =              0
(PID.TID 0000.0001) //            Avg. Y spins =       0.00E+00
(PID.TID 0000.0001) // o Thread number: 000001
(PID.TID 0000.0001) //            No. barriers =          22124
(PID.TID 0000.0001) //      Max. barrier spins =              1
(PID.TID 0000.0001) //      Min. barrier spins =              1
(PID.TID 0000.0001) //     Total barrier spins =          22124
(PID.TID 0000.0001) //      Avg. barrier spins =       1.00E+00
