(PID.TID 0000.0001) 
(PID.TID 0000.0001) // ======================================================
(PID.TID 0000.0001) //                      MITgcm UV
(PID.TID 0000.0001) //                      =========
(PID.TID 0000.0001) // ======================================================
(PID.TID 0000.0001) // execution environment starting up...
(PID.TID 0000.0001) 
(PID.TID 0000.0001) // MITgcmUV version:  checkpoint55f_post
(PID.TID 0000.0001) // Build user:        heimbach
(PID.TID 0000.0001) // Build host:        sea
(PID.TID 0000.0001) // Build date:        Thu Oct 14 00:39:25 EDT 2004
(PID.TID 0000.0001) 
(PID.TID 0000.0001) // =======================================================
(PID.TID 0000.0001) // Execution Environment parameter file "eedata"
(PID.TID 0000.0001) // =======================================================
(PID.TID 0000.0001) ># Example "eedata" file
(PID.TID 0000.0001) ># Lines beginning "#" are comments
(PID.TID 0000.0001) ># nTx - No. threads per process in X
(PID.TID 0000.0001) ># nTy - No. threads per process in Y
(PID.TID 0000.0001) > &EEPARMS
(PID.TID 0000.0001) > nTx=1,nTy=1
(PID.TID 0000.0001) > &
(PID.TID 0000.0001) ># Note: Some systems use & as the
(PID.TID 0000.0001) ># namelist terminator. Other systems
(PID.TID 0000.0001) ># use a / character (as shown here).
(PID.TID 0000.0001) 
(PID.TID 0000.0001) // =======================================================
(PID.TID 0000.0001) // Computational Grid Specification ( see files "SIZE.h" )
(PID.TID 0000.0001) //                                  ( and "eedata"       )
(PID.TID 0000.0001) // =======================================================
(PID.TID 0000.0001)      nPx =    1 ; /* No. processes in X */
(PID.TID 0000.0001)      nPy =    1 ; /* No. processes in Y */
(PID.TID 0000.0001)      nSx =    1 ; /* No. tiles in X per process */
(PID.TID 0000.0001)      nSy =    1 ; /* No. tiles in Y per process */
(PID.TID 0000.0001)      sNx =    2 ; /* Tile size in X */
(PID.TID 0000.0001)      sNy =   64 ; /* Tile size in Y */
(PID.TID 0000.0001)      OLx =    4 ; /* Tile overlap distance in X */
(PID.TID 0000.0001)      OLy =    4 ; /* Tile overlap distance in Y */
(PID.TID 0000.0001)      nTx =    1 ; /* No. threads in X per process */
(PID.TID 0000.0001)      nTy =    1 ; /* No. threads in Y per process */
(PID.TID 0000.0001)       Nr =    5 ; /* No. levels in the vertical   */
(PID.TID 0000.0001)       nX =    2 ; /* Total domain size in X ( = nPx*nSx*sNx ) */
(PID.TID 0000.0001)       nY =   64 ; /* Total domain size in Y ( = nPy*nSy*sNy ) */
(PID.TID 0000.0001)   nTiles =    1 ; /* Total no. tiles per process ( = nSx*nSy ) */
(PID.TID 0000.0001)   nProcs =    1 ; /* Total no. processes ( = nPx*nPy ) */
(PID.TID 0000.0001) nThreads =    1 ; /* Total no. threads per process ( = nTx*nTy ) */
(PID.TID 0000.0001) usingMPI =    F ; /* Flag used to control whether MPI is in use */
(PID.TID 0000.0001)                   /*  note: To execute a program with MPI calls */
(PID.TID 0000.0001)                   /*  it must be launched appropriately e.g     */
(PID.TID 0000.0001)                   /*  "mpirun -np 64 ......"                    */
(PID.TID 0000.0001) useCoupler=   F ; /* Flag used to control communications with */
(PID.TID 0000.0001)                   /*  other model components, through a coupler */
(PID.TID 0000.0001) 
(PID.TID 0000.0001) // ======================================================
(PID.TID 0000.0001) // Mapping of tiles to threads
(PID.TID 0000.0001) // ======================================================
(PID.TID 0000.0001) // -o- Thread   1, tiles (   1:   1,   1:   1)
(PID.TID 0000.0001) 
(PID.TID 0000.0001) // ======================================================
(PID.TID 0000.0001) // Tile <-> Tile connectvity table
(PID.TID 0000.0001) // ======================================================
(PID.TID 0000.0001) // Tile number: 000001 (process no. = 000001)
(PID.TID 0000.0001) //        WEST: Tile = 000001, Process = 000001, Comm = put
(PID.TID 0000.0001) //                bi = 000001, bj = 000001
(PID.TID 0000.0001) //        EAST: Tile = 000001, Process = 000001, Comm = put
(PID.TID 0000.0001) //                bi = 000001, bj = 000001
(PID.TID 0000.0001) //       SOUTH: Tile = 000001, Process = 000001, Comm = put
(PID.TID 0000.0001) //                bi = 000001, bj = 000001
(PID.TID 0000.0001) //       NORTH: Tile = 000001, Process = 000001, Comm = put
(PID.TID 0000.0001) //                bi = 000001, bj = 000001
(PID.TID 0000.0001) 
(PID.TID 0000.0001) // =======================================================
(PID.TID 0000.0001) // Model parameter file "data"
(PID.TID 0000.0001) // =======================================================
(PID.TID 0000.0001) ># ====================
(PID.TID 0000.0001) ># | Model parameters |
(PID.TID 0000.0001) ># ====================
(PID.TID 0000.0001) >#
(PID.TID 0000.0001) ># Continuous equation parameters
(PID.TID 0000.0001) > &PARM01
(PID.TID 0000.0001) > tRef= 281.089, 289.321, 307.191, 331.377, 432.413,
(PID.TID 0000.0001) > tRef=5*0.,
(PID.TID 0000.0001) > sRef=5*0.,
(PID.TID 0000.0001) > viscAr=0.,
(PID.TID 0000.0001) > viscAh=0.,
(PID.TID 0000.0001) > viscA4=0.,
(PID.TID 0000.0001) > no_slip_sides=.FALSE.,
(PID.TID 0000.0001) > no_slip_bottom=.FALSE.,
(PID.TID 0000.0001) > diffKrT=0.,
(PID.TID 0000.0001) > diffKhT=0.,
(PID.TID 0000.0001) > diffK4T=0.,
(PID.TID 0000.0001) > diffKrS=0.,
(PID.TID 0000.0001) > diffKhS=0.,
(PID.TID 0000.0001) > diffK4S=0.,
(PID.TID 0000.0001) > buoyancyRelation='ATMOSPHERIC',
(PID.TID 0000.0001) > eosType='IDEALGAS',
(PID.TID 0000.0001) > gravity=9.81,
(PID.TID 0000.0001) > gBaro=9.81,
(PID.TID 0000.0001) > rhonil=1.0,
(PID.TID 0000.0001) > rhoConst=1.0,
(PID.TID 0000.0001) > rigidLid=.FALSE.,
(PID.TID 0000.0001) > implicitFreeSurface=.TRUE.,
(PID.TID 0000.0001) > nonHydrostatic=.FALSE.,
(PID.TID 0000.0001) > readBinaryPrec=64,
(PID.TID 0000.0001) > writeBinaryPrec=64,
(PID.TID 0000.0001) ># globalFiles=.TRUE.,
(PID.TID 0000.0001) > staggerTimestep=.TRUE.,
(PID.TID 0000.0001) > &
(PID.TID 0000.0001) >
(PID.TID 0000.0001) ># Elliptic solver parameters
(PID.TID 0000.0001) > &PARM02
(PID.TID 0000.0001) > cg2dMaxIters=600,
(PID.TID 0000.0001) > cg2dTargetResidual=1.E-13,
(PID.TID 0000.0001) > &
(PID.TID 0000.0001) >
(PID.TID 0000.0001) ># Time stepping parameters
(PID.TID 0000.0001) > &PARM03
(PID.TID 0000.0001) > niter0=0,
(PID.TID 0000.0001) > nTimeSteps=10,
(PID.TID 0000.0001) > abEps=0.1,
(PID.TID 0000.0001) > deltaT=1200.0,
(PID.TID 0000.0001) > cAdjFreq=0.,
(PID.TID 0000.0001) > pChkptFreq=0.0,
(PID.TID 0000.0001) > chkptFreq=0.0,
(PID.TID 0000.0001) > dumpFreq=2592000.0,
(PID.TID 0000.0001) > taveFreq=2592000.,
(PID.TID 0000.0001) > monitorFreq=1.,
(PID.TID 0000.0001) > &
(PID.TID 0000.0001) >
(PID.TID 0000.0001) ># Gridding parameters
(PID.TID 0000.0001) > &PARM04
(PID.TID 0000.0001) > usingCartesianGrid=.FALSE.,
(PID.TID 0000.0001) > usingSphericalPolarGrid=.TRUE.,
(PID.TID 0000.0001) > delX=1*2.8125,
(PID.TID 0000.0001) > delY=64*2.8125,
(PID.TID 0000.0001) > delR=1.E4, 2.5E4, 3.E4, 2.E4, 1.5E4,
(PID.TID 0000.0001) > Ro_SeaLevel=1.E5,
(PID.TID 0000.0001) > groundAtK1=.TRUE.,
(PID.TID 0000.0001) > phiMin=-90.,
(PID.TID 0000.0001) > &
(PID.TID 0000.0001) >
(PID.TID 0000.0001) ># Input datasets
(PID.TID 0000.0001) > &PARM05
(PID.TID 0000.0001) > &
(PID.TID 0000.0001) >
(PID.TID 0000.0001) >
(PID.TID 0000.0001) >
(PID.TID 0000.0001) >
(PID.TID 0000.0001) 
(PID.TID 0000.0001) S/R INI_PARMS ; starts to read PARM01
(PID.TID 0000.0001) S/R INI_PARMS ; read PARM01 : OK
(PID.TID 0000.0001) S/R INI_PARMS ; starts to read PARM02
(PID.TID 0000.0001) S/R INI_PARMS ; read PARM02 : OK
(PID.TID 0000.0001) S/R INI_PARMS ; starts to read PARM03
(PID.TID 0000.0001) S/R INI_PARMS ; read PARM03 : OK
(PID.TID 0000.0001) S/R INI_PARMS ; starts to read PARM04
(PID.TID 0000.0001) S/R INI_PARMS ; read PARM04 : OK
(PID.TID 0000.0001) S/R INI_PARMS ; starts to read PARM05
(PID.TID 0000.0001) S/R INI_PARMS ; read PARM05 : OK
(PID.TID 0000.0001) %MON XC_max                       =   6.1731162500000E+04
(PID.TID 0000.0001) %MON XC_min                       =   1.4062500000000E+00
(PID.TID 0000.0001) %MON XC_mean                      =   3.0866284375000E+04
(PID.TID 0000.0001) %MON XC_sd                        =   3.0864878125000E+04
(PID.TID 0000.0001) %MON XG_max                       =   2.8125000000000E+00
(PID.TID 0000.0001) %MON XG_min                       =   2.8125000000000E+00
(PID.TID 0000.0001) %MON XG_mean                      =   2.8125000000000E+00
(PID.TID 0000.0001) %MON XG_sd                        =   0.0000000000000E+00
(PID.TID 0000.0001) %MON DXC_max                      =   6.8608913357743E+09
(PID.TID 0000.0001) %MON DXC_min                      =   1.6842542873232E+08
(PID.TID 0000.0001) %MON DXC_mean                     =   4.3695336528951E+09
(PID.TID 0000.0001) %MON DXC_sd                       =   2.1112257528249E+09
(PID.TID 0000.0001) %MON DXF_max                      =   1.3721470079080E+10
(PID.TID 0000.0001) %MON DXF_min                      =   7.6737143816223E+03
(PID.TID 0000.0001) %MON DXF_mean                     =   4.3695336528951E+09
(PID.TID 0000.0001) %MON DXF_sd                       =   5.2919964848858E+09
(PID.TID 0000.0001) %MON DXG_max                      =   1.3725603974381E+10
(PID.TID 0000.0001) %MON DXG_min                      =   1.5342806404640E+04
(PID.TID 0000.0001) %MON DXG_mean                     =   4.4375544188470E+09
(PID.TID 0000.0001) %MON DXG_sd                       =   5.3060107456477E+09
(PID.TID 0000.0001) %MON DXV_max                      =   6.8629583305122E+09
(PID.TID 0000.0001) %MON DXV_min                      =   3.3674940428422E+08
(PID.TID 0000.0001) %MON DXV_mean                     =   4.4375544188470E+09
(PID.TID 0000.0001) %MON DXV_sd                       =   2.0571874952504E+09
(PID.TID 0000.0001) %MON YC_max                       =   8.8593750000000E+01
(PID.TID 0000.0001) %MON YC_min                       =  -8.8593750000000E+01
(PID.TID 0000.0001) %MON YC_mean                      =   0.0000000000000E+00
(PID.TID 0000.0001) %MON YC_sd                        =   5.1955180880375E+01
(PID.TID 0000.0001) %MON YG_max                       =   8.7187500000000E+01
(PID.TID 0000.0001) %MON YG_min                       =  -9.0000000000000E+01
(PID.TID 0000.0001) %MON YG_mean                      =  -1.4285714285714E+00
(PID.TID 0000.0001) %MON YG_sd                        =   5.2365595692639E+01
(PID.TID 0000.0001) %MON DYC_max                      =   3.1268664380261E+05
(PID.TID 0000.0001) %MON DYC_min                      =   3.1268664380261E+05
(PID.TID 0000.0001) %MON DYC_mean                     =   3.1268664380261E+05
(PID.TID 0000.0001) %MON DYC_sd                       =   0.0000000000000E+00
(PID.TID 0000.0001) %MON DYF_max                      =   3.1268664380261E+05
(PID.TID 0000.0001) %MON DYF_min                      =   3.1268664380261E+05
(PID.TID 0000.0001) %MON DYF_mean                     =   3.1268664380261E+05
(PID.TID 0000.0001) %MON DYF_sd                       =   0.0000000000000E+00
(PID.TID 0000.0001) %MON DYG_max                      =   3.1268664380261E+05
(PID.TID 0000.0001) %MON DYG_min                      =   3.1268664380261E+05
(PID.TID 0000.0001) %MON DYG_mean                     =   3.1268664380261E+05
(PID.TID 0000.0001) %MON DYG_sd                       =   0.0000000000000E+00
(PID.TID 0000.0001) %MON DYU_max                      =   3.1268664380261E+05
(PID.TID 0000.0001) %MON DYU_min                      =   3.1268664380261E+05
(PID.TID 0000.0001) %MON DYU_mean                     =   3.1268664380261E+05
(PID.TID 0000.0001) %MON DYU_sd                       =   0.0000000000000E+00
(PID.TID 0000.0001) %MON RA_max                       =   4.2900896769041E+15
(PID.TID 0000.0001) %MON RA_min                       =   2.3992270990191E+09
(PID.TID 0000.0001) %MON RA_mean                      =   1.3661576426676E+15
(PID.TID 0000.0001) %MON RA_sd                        =   1.6545704912941E+15
(PID.TID 0000.0001) %MON RAW_max                      =   2.1450937052904E+15
(PID.TID 0000.0001) %MON RAW_min                      =   5.2659094759410E+13
(PID.TID 0000.0001) %MON RAW_mean                     =   1.3661576426676E+15
(PID.TID 0000.0001) %MON RAW_sd                       =   6.6008581847342E+14
(PID.TID 0000.0001) %MON RAS_max                      =   4.2913821609784E+15
(PID.TID 0000.0001) %MON RAS_min                      =   4.7970089933465E+09
(PID.TID 0000.0001) %MON RAS_mean                     =   1.3874246923455E+15
(PID.TID 0000.0001) %MON RAS_sd                       =   1.6589521235156E+15
(PID.TID 0000.0001) %MON RAZ_max                      =   4.2913821609784E+15
(PID.TID 0000.0001) %MON RAZ_min                      =   4.7970089933465E+09
(PID.TID 0000.0001) %MON RAZ_mean                     =   1.3874246923455E+15
(PID.TID 0000.0001) %MON RAZ_sd                       =   1.6589521235156E+15
(PID.TID 0000.0001) // =======================================================
(PID.TID 0000.0001) // Field Model R_low (ini_masks_etc) at iteration          1
(PID.TID 0000.0001) // CMIN =          1.000000000000000E+32
(PID.TID 0000.0001) // CMAX =         -1.000000000000000E+32
(PID.TID 0000.0001) // CINT =          0.000000000000000E+00
(PID.TID 0000.0001) // SYMBOLS (CMIN->CMAX): -abcdefghijklmnopqrstuvwxyz+
(PID.TID 0000.0001) //                  0.0: .
(PID.TID 0000.0001) // RANGE I (Lo:Hi:Step):(  -3:   6:   1)
(PID.TID 0000.0001) // RANGE J (Lo:Hi:Step):(  68:  -3:  -1)
(PID.TID 0000.0001) // RANGE K (Lo:Hi:Step):(   1:   1:   1)
(PID.TID 0000.0001) // =======================================================
(PID.TID 0000.0001) // =======================================================
(PID.TID 0000.0001) // END OF FIELD                                          =
(PID.TID 0000.0001) // =======================================================
(PID.TID 0000.0001) 
(PID.TID 0000.0001) // =======================================================
(PID.TID 0000.0001) // Field Model Ro_surf (ini_masks_etc) at iteration          1
(PID.TID 0000.0001) // CMIN =          1.000000000000000E+05
(PID.TID 0000.0001) // CMAX =          1.000000000000000E+05
(PID.TID 0000.0001) // CINT =          0.000000000000000E+00
(PID.TID 0000.0001) // SYMBOLS (CMIN->CMAX): -abcdefghijklmnopqrstuvwxyz+
(PID.TID 0000.0001) //                  0.0: .
(PID.TID 0000.0001) // RANGE I (Lo:Hi:Step):(  -3:   6:   1)
(PID.TID 0000.0001) // RANGE J (Lo:Hi:Step):(  68:  -3:  -1)
(PID.TID 0000.0001) // RANGE K (Lo:Hi:Step):(   1:   1:   1)
(PID.TID 0000.0001) // =======================================================
(PID.TID 0000.0001) // =======================================================
(PID.TID 0000.0001) // END OF FIELD                                          =
(PID.TID 0000.0001) // =======================================================
(PID.TID 0000.0001) 
(PID.TID 0000.0001) // =======================================================
(PID.TID 0000.0001) // Field hFacC at iteration          1
(PID.TID 0000.0001) // CMIN =          1.000000000000000E+00
(PID.TID 0000.0001) // CMAX =          1.000000000000000E+00
(PID.TID 0000.0001) // CINT =          0.000000000000000E+00
(PID.TID 0000.0001) // SYMBOLS (CMIN->CMAX): -abcdefghijklmnopqrstuvwxyz+
(PID.TID 0000.0001) //                  0.0: .
(PID.TID 0000.0001) // RANGE I (Lo:Hi:Step):(  -3:   6:   1)
(PID.TID 0000.0001) // RANGE J (Lo:Hi:Step):(  68:  -3:  -1)
(PID.TID 0000.0001) // RANGE K (Lo:Hi:Step):(   1:   1:   1)
(PID.TID 0000.0001) // =======================================================
(PID.TID 0000.0001) // =======================================================
(PID.TID 0000.0001) // END OF FIELD                                          =
(PID.TID 0000.0001) // =======================================================
(PID.TID 0000.0001) 
(PID.TID 0000.0001) // =======================================================
(PID.TID 0000.0001) // Field hFacW at iteration          1
(PID.TID 0000.0001) // CMIN =          1.000000000000000E+00
(PID.TID 0000.0001) // CMAX =          1.000000000000000E+00
(PID.TID 0000.0001) // CINT =          0.000000000000000E+00
(PID.TID 0000.0001) // SYMBOLS (CMIN->CMAX): -abcdefghijklmnopqrstuvwxyz+
(PID.TID 0000.0001) //                  0.0: .
(PID.TID 0000.0001) // RANGE I (Lo:Hi:Step):(  -3:   6:   1)
(PID.TID 0000.0001) // RANGE J (Lo:Hi:Step):(  68:  -3:  -1)
(PID.TID 0000.0001) // RANGE K (Lo:Hi:Step):(   1:   1:   1)
(PID.TID 0000.0001) // =======================================================
(PID.TID 0000.0001) // =======================================================
(PID.TID 0000.0001) // END OF FIELD                                          =
(PID.TID 0000.0001) // =======================================================
(PID.TID 0000.0001) 
(PID.TID 0000.0001) // =======================================================
(PID.TID 0000.0001) // Field hFacS at iteration          1
(PID.TID 0000.0001) // CMIN =          1.000000000000000E+00
(PID.TID 0000.0001) // CMAX =          1.000000000000000E+00
(PID.TID 0000.0001) // CINT =          0.000000000000000E+00
(PID.TID 0000.0001) // SYMBOLS (CMIN->CMAX): -abcdefghijklmnopqrstuvwxyz+
(PID.TID 0000.0001) //                  0.0: .
(PID.TID 0000.0001) // RANGE I (Lo:Hi:Step):(  -3:   6:   1)
(PID.TID 0000.0001) // RANGE J (Lo:Hi:Step):(  68:  -3:  -1)
(PID.TID 0000.0001) // RANGE K (Lo:Hi:Step):(   1:   1:   1)
(PID.TID 0000.0001) // =======================================================
(PID.TID 0000.0001) // =======================================================
(PID.TID 0000.0001) // END OF FIELD                                          =
(PID.TID 0000.0001) // =======================================================
(PID.TID 0000.0001) 
(PID.TID 0000.0001)  PACKAGES_BOOT: opening data.pkg
(PID.TID 0000.0001)  OPEN_COPY_DATA_FILE: opening file data.pkg
(PID.TID 0000.0001) // =======================================================
(PID.TID 0000.0001) // Parameter file "data.pkg"
(PID.TID 0000.0001) // =======================================================
(PID.TID 0000.0001) >#
(PID.TID 0000.0001) ># ********
(PID.TID 0000.0001) ># Packages
(PID.TID 0000.0001) ># ********
(PID.TID 0000.0001) > &PACKAGES
(PID.TID 0000.0001) > useSHAP_FILT = .TRUE.,
(PID.TID 0000.0001) > useGrdchk    = .TRUE.,
(PID.TID 0000.0001) > &
(PID.TID 0000.0001) 
(PID.TID 0000.0001)  PACKAGES_BOOT: finished reading data.pkg
(PID.TID 0000.0001)  SHAP_FILT_READPARMS: opening data.shap
(PID.TID 0000.0001)  OPEN_COPY_DATA_FILE: opening file data.shap
(PID.TID 0000.0001) // =======================================================
(PID.TID 0000.0001) // Parameter file "data.shap"
(PID.TID 0000.0001) // =======================================================
(PID.TID 0000.0001) ># Packages
(PID.TID 0000.0001) > &SHAP_PARM01
(PID.TID 0000.0001) > nShapT=4,
(PID.TID 0000.0001) > nShapUV=4,
(PID.TID 0000.0001) > Shap_funct=4,
(PID.TID 0000.0001) > &
(PID.TID 0000.0001) 
(PID.TID 0000.0001)  SHAP_FILT_READPARMS: finished reading data.shap
(PID.TID 0000.0001) Shap_funct =   /* select Shapiro filter function */
(PID.TID 0000.0001)                       4
(PID.TID 0000.0001)     ;
(PID.TID 0000.0001) nShapT =   /* power of Shapiro filter for Temperat */
(PID.TID 0000.0001)                       4
(PID.TID 0000.0001)     ;
(PID.TID 0000.0001) nShapS =   /* power of Shapiro filter for Salinity */
(PID.TID 0000.0001)                       4
(PID.TID 0000.0001)     ;
(PID.TID 0000.0001) nShapUV =   /* power of Shapiro filter for momentum */
(PID.TID 0000.0001)                       4
(PID.TID 0000.0001)     ;
(PID.TID 0000.0001) Shap_Trtau =   /* time scale of Shapiro filter (Tracer) */
(PID.TID 0000.0001)                 1.200000000000000E+03
(PID.TID 0000.0001)     ;
(PID.TID 0000.0001) Shap_TrLength =   /* Length scale of Shapiro filter (Tracer) */
(PID.TID 0000.0001)                 0.000000000000000E+00
(PID.TID 0000.0001)     ;
(PID.TID 0000.0001) Shap_uvtau =   /* time scale of Shapiro filter (Momentum) */
(PID.TID 0000.0001)                 1.200000000000000E+03
(PID.TID 0000.0001)     ;
(PID.TID 0000.0001) Shap_uvLength =   /* Length scale of Shapiro filter (Momentum) */
(PID.TID 0000.0001)                 0.000000000000000E+00
(PID.TID 0000.0001)     ;
(PID.TID 0000.0001) Shap_noSlip =  /* No-slip parameter (0=Free-slip ; 1=No-slip)*/
(PID.TID 0000.0001)                 0.000000000000000E+00
(PID.TID 0000.0001)     ;
(PID.TID 0000.0001) Shap_diagFreq =   /* Frequency^-1 for diagnostic output (s)*/
(PID.TID 0000.0001)                 0.000000000000000E+00
(PID.TID 0000.0001)     ;
(PID.TID 0000.0001) Processing namelist file data.cost ...
(PID.TID 0000.0001) 
(PID.TID 0000.0001) // =======================================================
(PID.TID 0000.0001) // Gradient check configuration  >>> START <<<
(PID.TID 0000.0001) // =======================================================
(PID.TID 0000.0001) 
(PID.TID 0000.0001)   eps:                              0.100E-01
(PID.TID 0000.0001)   First location:                           1
(PID.TID 0000.0001)   Last location:                            4
(PID.TID 0000.0001)   Increment:                                1
(PID.TID 0000.0001) 
(PID.TID 0000.0001) // =======================================================
(PID.TID 0000.0001) // Gradient check configuration  >>> END <<<
(PID.TID 0000.0001) // =======================================================
(PID.TID 0000.0001) 
(PID.TID 0000.0001) 
(PID.TID 0000.0001) // ===================================
(PID.TID 0000.0001) // GAD parameters :
(PID.TID 0000.0001) // ===================================
(PID.TID 0000.0001) tempAdvScheme =   /* Temp. Horiz.Advection scheme selector */
(PID.TID 0000.0001)                       2
(PID.TID 0000.0001)     ;
(PID.TID 0000.0001) tempVertAdvScheme =   /* Temp. Vert. Advection scheme selector */
(PID.TID 0000.0001)                       2
(PID.TID 0000.0001)     ;
(PID.TID 0000.0001) tempMultiDimAdvec =   /* use Muti-Dim Advec method for Temp */
(PID.TID 0000.0001)                   F
(PID.TID 0000.0001)     ;
(PID.TID 0000.0001) tempAdamsBashforth =   /* use Adams-Bashforth time-stepping for Temp */
(PID.TID 0000.0001)                   T
(PID.TID 0000.0001)     ;
(PID.TID 0000.0001) saltAdvScheme =   /* Salt. Horiz.advection scheme selector */
(PID.TID 0000.0001)                       2
(PID.TID 0000.0001)     ;
(PID.TID 0000.0001) saltVertAdvScheme =   /* Salt. Vert. Advection scheme selector */
(PID.TID 0000.0001)                       2
(PID.TID 0000.0001)     ;
(PID.TID 0000.0001) saltMultiDimAdvec =   /* use Muti-Dim Advec method for Salt */
(PID.TID 0000.0001)                   F
(PID.TID 0000.0001)     ;
(PID.TID 0000.0001) saltAdamsBashforth =   /* use Adams-Bashforth time-stepping for Salt */
(PID.TID 0000.0001)                   T
(PID.TID 0000.0001)     ;
(PID.TID 0000.0001) // ===================================
 ph-wet 1: nvarlength =  2560
 ph-wet 2: surface wet C =  128
 ph-wet 3: surface wet W =  128
 ph-wet 4: surface wet S =  126
 ph-wet 4a:surface wet V =  0
 ph-wet 5: 3D wet points =  640
 ph-wet 6: no recs for i =  1 1
 ph-wet 6: no recs for i =  2 1
 ph-wet 6: no recs for i =  3 0
 ph-wet 6: no recs for i =  4 0
 ph-wet 6: no recs for i =  5 0
 ph-wet 6: no recs for i =  6 0
 ph-wet 6: no recs for i =  7 0
 ph-wet 6: no recs for i =  8 0
 ph-wet 6: no recs for i =  9 0
 ph-wet 6: no recs for i =  10 0
 ph-wet 6: no recs for i =  11 0
 ph-wet 6: no recs for i =  12 0
 ph-wet 6: no recs for i =  13 0
 ph-wet 6: no recs for i =  14 0
 ph-wet 6: no recs for i =  15 1
 ph-wet 6: no recs for i =  16 0
 ph-wet 6: no recs for i =  17 1
 ph-wet 6: no recs for i =  18 0
 ph-wet 6: no recs for i =  19 0
 ph-wet 6: no recs for i =  20 0
 ph-wet 6: no recs for i =  21 0
 ph-wet 6: no recs for i =  22 0
 ph-wet 6: no recs for i =  23 0
 ph-wet 6: no recs for i =  24 0
 ph-wet 6: no recs for i =  25 0
 ph-wet 6: no recs for i =  26 0
 ph-wet 6: no recs for i =  27 0
 ph-wet 6: no recs for i =  28 0
 ph-wet 6: no recs for i =  29 0
 ph-wet 6: no recs for i =  30 0
 ph-wet 7:  1280
 ph-wet 8:  1280
 ph-wet 13: global nvarlength vor k= 6 2560
 ph-wet 14a: global nWet... k= 1 128
 ph-wet 14b: global nWet... k= 1 126
 ph-wet 14c: global nWet... k= 1 128
 ph-wet 14d: global nWet... k= 1 0
 ph-wet 14a: global nWet... k= 2 128
 ph-wet 14b: global nWet... k= 2 126
 ph-wet 14c: global nWet... k= 2 128
 ph-wet 14d: global nWet... k= 2 0
 ph-wet 14a: global nWet... k= 3 128
 ph-wet 14b: global nWet... k= 3 126
 ph-wet 14c: global nWet... k= 3 128
 ph-wet 14d: global nWet... k= 3 0
 ph-wet 14a: global nWet... k= 4 128
 ph-wet 14b: global nWet... k= 4 126
 ph-wet 14c: global nWet... k= 4 128
 ph-wet 14d: global nWet... k= 4 0
 ph-wet 14a: global nWet... k= 5 128
 ph-wet 14b: global nWet... k= 5 126
 ph-wet 14c: global nWet... k= 5 128
 ph-wet 14d: global nWet... k= 5 0
 ctrl_init: no. of control variables:  4
 ctrl_init: control vector length:     2560
(PID.TID 0000.0001) CTRL_CHECK: ctrl package
(PID.TID 0000.0001) COST_CHECK: cost package
(PID.TID 0000.0001) %MON fCori_max                    =   1.4540029928789E-04
(PID.TID 0000.0001) %MON fCori_min                    =  -1.4540029928789E-04
(PID.TID 0000.0001) %MON fCori_mean                   =   0.0000000000000E+00
(PID.TID 0000.0001) %MON fCori_sd                     =   1.0284451245737E-04
(PID.TID 0000.0001) %MON fCoriG_max                   =   1.4526891053949E-04
(PID.TID 0000.0001) %MON fCoriG_min                   =  -1.4544410433286E-04
(PID.TID 0000.0001) %MON fCoriG_mean                  =  -2.3086365767121E-06
(PID.TID 0000.0001) %MON fCoriG_sd                    =   1.0363181330709E-04
(PID.TID 0000.0001) %MON fCoriCos_max                 =   1.4540029928789E-04
(PID.TID 0000.0001) %MON fCoriCos_min                 =   3.5693770017430E-06
(PID.TID 0000.0001) %MON fCoriCos_mean                =   9.2601889431869E-05
(PID.TID 0000.0001) %MON fCoriCos_sd                  =   4.4742416298653E-05
(PID.TID 0000.0001) // CG2D normalisation factor =          0.2278126663032464164969763E-09
(PID.TID 0000.0001) 
(PID.TID 0000.0001) CONFIG_CHECK: OK
(PID.TID 0000.0001) // =======================================================
(PID.TID 0000.0001) // Model configuration
(PID.TID 0000.0001) // =======================================================
(PID.TID 0000.0001) //
(PID.TID 0000.0001) // "Physical" paramters ( PARM01 in namelist )
(PID.TID 0000.0001) //
(PID.TID 0000.0001) buoyancyRelation = ATMOSPHERIC
(PID.TID 0000.0001) tRef =   /* Reference temperature profile ( oC or oK ) */
(PID.TID 0000.0001)     5 @  0.000000000000000E+00              /* K =  1:  5 */
(PID.TID 0000.0001)     ;
(PID.TID 0000.0001) sRef =   /* Reference salinity profile ( ppt ) */
(PID.TID 0000.0001)     5 @  0.000000000000000E+00              /* K =  1:  5 */
(PID.TID 0000.0001)     ;
(PID.TID 0000.0001) viscAh =   /* Lateral eddy viscosity ( m^2/s ) */
(PID.TID 0000.0001)                 0.000000000000000E+00
(PID.TID 0000.0001)     ;
(PID.TID 0000.0001) viscAhMax =   /* Maximum lateral eddy viscosity ( m^2/s ) */
(PID.TID 0000.0001)                 1.000000000000000E+21
(PID.TID 0000.0001)     ;
(PID.TID 0000.0001) viscAhGrid =   /* Grid dependent lateral eddy viscosity ( non-dim. ) */
(PID.TID 0000.0001)                 0.000000000000000E+00
(PID.TID 0000.0001)     ;
(PID.TID 0000.0001) viscC2leith =   /* Leith harmonic viscosity factor ( non-dom. ) */
(PID.TID 0000.0001)                 0.000000000000000E+00
(PID.TID 0000.0001)     ;
(PID.TID 0000.0001) viscA4 =   /* Lateral biharmonic viscosity ( m^4/s ) */
(PID.TID 0000.0001)                 0.000000000000000E+00
(PID.TID 0000.0001)     ;
(PID.TID 0000.0001) viscA4Max =   /* Maximum biharmonic viscosity ( m^2/s ) */
(PID.TID 0000.0001)                 1.000000000000000E+21
(PID.TID 0000.0001)     ;
(PID.TID 0000.0001) viscA4Grid =   /* Grid dependent biharmonic viscosity ( non-dim. ) */
(PID.TID 0000.0001)                 0.000000000000000E+00
(PID.TID 0000.0001)     ;
(PID.TID 0000.0001) viscC4leith =   /* Leith biharmonic viscosity factor ( non-dom. ) */
(PID.TID 0000.0001)                 0.000000000000000E+00
(PID.TID 0000.0001)     ;
(PID.TID 0000.0001) no_slip_sides =  /* Viscous BCs: No-slip sides */
(PID.TID 0000.0001)                   F
(PID.TID 0000.0001)     ;
(PID.TID 0000.0001) viscAr =   /* Vertical eddy viscosity ( units of r^2/s ) */
(PID.TID 0000.0001)                 0.000000000000000E+00
(PID.TID 0000.0001)     ;
(PID.TID 0000.0001) no_slip_bottom =  /* Viscous BCs: No-slip bottom */
(PID.TID 0000.0001)                   F
(PID.TID 0000.0001)     ;
(PID.TID 0000.0001) diffKhT =   /* Laplacian diffusion of heat laterally ( m^2/s ) */
(PID.TID 0000.0001)                 0.000000000000000E+00
(PID.TID 0000.0001)     ;
(PID.TID 0000.0001) diffK4T =   /* Bihaarmonic diffusion of heat laterally ( m^4/s ) */
(PID.TID 0000.0001)                 0.000000000000000E+00
(PID.TID 0000.0001)     ;
(PID.TID 0000.0001) diffKrT =   /* Laplacian diffusion of heat vertically ( m^2/s ) */
(PID.TID 0000.0001)                 0.000000000000000E+00
(PID.TID 0000.0001)     ;
(PID.TID 0000.0001) diffKhS =   /* Laplacian diffusion of salt laterally ( m^2/s ) */
(PID.TID 0000.0001)                 0.000000000000000E+00
(PID.TID 0000.0001)     ;
(PID.TID 0000.0001) diffK4S =   /* Bihaarmonic diffusion of salt laterally ( m^4/s ) */
(PID.TID 0000.0001)                 0.000000000000000E+00
(PID.TID 0000.0001)     ;
(PID.TID 0000.0001) diffKrS =   /* Laplacian diffusion of salt vertically ( m^2/s ) */
(PID.TID 0000.0001)                 0.000000000000000E+00
(PID.TID 0000.0001)     ;
(PID.TID 0000.0001) diffKrBL79surf =   /* Surface diffusion for Bryan and Lewis 1979 ( m^2/s ) */
(PID.TID 0000.0001)                 0.000000000000000E+00
(PID.TID 0000.0001)     ;
(PID.TID 0000.0001) diffKrBL79deep =   /* Deep diffusion for Bryan and Lewis 1979 ( m^2/s ) */
(PID.TID 0000.0001)                 0.000000000000000E+00
(PID.TID 0000.0001)     ;
(PID.TID 0000.0001) diffKrBL79scl =   /* Depth scale for Bryan and Lewis 1979 ( m ) */
(PID.TID 0000.0001)                 2.000000000000000E+02
(PID.TID 0000.0001)     ;
(PID.TID 0000.0001) diffKrBL79Ho =   /* Turning depth for Bryan and Lewis 1979 ( m ) */
(PID.TID 0000.0001)                -2.000000000000000E+03
(PID.TID 0000.0001)     ;
(PID.TID 0000.0001)  Equation of State : eosType = IDEALG
(PID.TID 0000.0001) tAlpha =   /* Linear EOS thermal expansion coefficient ( 1/degree ) */
(PID.TID 0000.0001)                 1.234567000000000E+05
(PID.TID 0000.0001)     ;
(PID.TID 0000.0001) sBeta =   /* Linear EOS haline contraction coefficient ( 1/ppt ) */
(PID.TID 0000.0001)                 1.234567000000000E+05
(PID.TID 0000.0001)     ;
(PID.TID 0000.0001) atm_Rd =  /* gas constant for dry air ( J/kg/K ) */
(PID.TID 0000.0001)                 2.868571428571428E+02
(PID.TID 0000.0001)     ;
(PID.TID 0000.0001) atm_Cp =  /* specific heat (Cp) of dry air ( J/kg/K ) */
(PID.TID 0000.0001)                 1.004000000000000E+03
(PID.TID 0000.0001)     ;
(PID.TID 0000.0001) atm_kappa =  /* kappa (=Rd/Cp ) of dry air */
(PID.TID 0000.0001)                 2.857142857142857E-01
(PID.TID 0000.0001)     ;
(PID.TID 0000.0001) atm_Rq = /* water vap. specific vol. anomaly relative to dry air */
(PID.TID 0000.0001)                 0.000000000000000E+00
(PID.TID 0000.0001)     ;
(PID.TID 0000.0001) atm_Po =  /* standard reference pressure ( Pa ) */
(PID.TID 0000.0001)                 1.000000000000000E+05
(PID.TID 0000.0001)     ;
(PID.TID 0000.0001) integr_GeoPot =  /* select how the geopotential is integrated */
(PID.TID 0000.0001)                       2
(PID.TID 0000.0001)     ;
(PID.TID 0000.0001) selectFindRoSurf=  /* select how Surf.Ref. pressure is defined */
(PID.TID 0000.0001)                       0
(PID.TID 0000.0001)     ;
(PID.TID 0000.0001) rhonil =   /* Reference density ( kg/m^3 ) */
(PID.TID 0000.0001)                 1.000000000000000E+00
(PID.TID 0000.0001)     ;
(PID.TID 0000.0001) rhoConst =   /* Reference density ( kg/m^3 ) */
(PID.TID 0000.0001)                 1.000000000000000E+00
(PID.TID 0000.0001)     ;
(PID.TID 0000.0001) rhoConstFresh =   /* Reference density ( kg/m^3 ) */
(PID.TID 0000.0001)                 1.000000000000000E+00
(PID.TID 0000.0001)     ;
(PID.TID 0000.0001) gravity =   /* Gravitational acceleration ( m/s^2 ) */
(PID.TID 0000.0001)                 9.810000000000000E+00
(PID.TID 0000.0001)     ;
(PID.TID 0000.0001) gBaro =   /* Barotropic gravity ( m/s^2 ) */
(PID.TID 0000.0001)                 9.810000000000000E+00
(PID.TID 0000.0001)     ;
(PID.TID 0000.0001) rotationPeriod =   /* Rotation Period ( s ) */
(PID.TID 0000.0001)                 8.640000000000000E+04
(PID.TID 0000.0001)     ;
(PID.TID 0000.0001) omega =   /* Angular velocity ( rad/s ) */
(PID.TID 0000.0001)                 7.272205216643040E-05
(PID.TID 0000.0001)     ;
(PID.TID 0000.0001) f0 =   /* Reference coriolis parameter ( 1/s ) */
(PID.TID 0000.0001)                 1.000000000000000E-04
(PID.TID 0000.0001)     ;
(PID.TID 0000.0001) beta =   /* Beta ( 1/(m.s) ) */
(PID.TID 0000.0001)                 9.999999999999999E-12
(PID.TID 0000.0001)     ;
(PID.TID 0000.0001) freeSurfFac =   /* Implicit free surface factor */
(PID.TID 0000.0001)                 1.000000000000000E+00
(PID.TID 0000.0001)     ;
(PID.TID 0000.0001) implicitFreeSurface =   /* Implicit free surface on/off flag */
(PID.TID 0000.0001)                   T
(PID.TID 0000.0001)     ;
(PID.TID 0000.0001) rigidLid =   /* Rigid lid on/off flag */
(PID.TID 0000.0001)                   F
(PID.TID 0000.0001)     ;
(PID.TID 0000.0001) implicSurfPress =   /* Surface Pressure implicit factor (0-1)*/
(PID.TID 0000.0001)                 1.000000000000000E+00
(PID.TID 0000.0001)     ;
(PID.TID 0000.0001) implicDiv2Dflow =   /* Barot. Flow Div. implicit factor (0-1)*/
(PID.TID 0000.0001)                 1.000000000000000E+00
(PID.TID 0000.0001)     ;
(PID.TID 0000.0001) exactConserv =   /* Exact Volume Conservation on/off flag*/
(PID.TID 0000.0001)                   F
(PID.TID 0000.0001)     ;
(PID.TID 0000.0001) uniformLin_PhiSurf =   /* use uniform Bo_surf on/off flag*/
(PID.TID 0000.0001)                   T
(PID.TID 0000.0001)     ;
(PID.TID 0000.0001) nonlinFreeSurf =   /* Non-linear Free Surf. options (-1,0,1,2,3)*/
(PID.TID 0000.0001)                       0
(PID.TID 0000.0001)     ;
(PID.TID 0000.0001)      -1,0= Off ; 1,2,3= On, 2=+rescale gU,gV, 3=+update cg2d solv.
(PID.TID 0000.0001) hFacInf =   /* lower threshold for hFac (nonlinFreeSurf only)*/
(PID.TID 0000.0001)                 2.000000000000000E-01
(PID.TID 0000.0001)     ;
(PID.TID 0000.0001) hFacSup =   /* upper threshold for hFac (nonlinFreeSurf only)*/
(PID.TID 0000.0001)                 2.000000000000000E+00
(PID.TID 0000.0001)     ;
(PID.TID 0000.0001) select_rStar =   /* r* Coordinate options (not yet implemented)*/
(PID.TID 0000.0001)                       0
(PID.TID 0000.0001)     ;
(PID.TID 0000.0001) useRealFreshWaterFlux =   /* Real Fresh Water Flux on/off flag*/
(PID.TID 0000.0001)                   F
(PID.TID 0000.0001)     ;
(PID.TID 0000.0001) convertFW2Salt = /* convert F.W. Flux to Salt Flux (-1=use local S)(ppt)*/
(PID.TID 0000.0001)                 3.500000000000000E+01
(PID.TID 0000.0001)     ;
(PID.TID 0000.0001) nonHydrostatic =  /* Non-Hydrostatic on/off flag */
(PID.TID 0000.0001)                   F
(PID.TID 0000.0001)     ;
(PID.TID 0000.0001) momStepping =  /* Momentum equation on/off flag */
(PID.TID 0000.0001)                   T
(PID.TID 0000.0001)     ;
(PID.TID 0000.0001) momAdvection =  /* Momentum advection on/off flag */
(PID.TID 0000.0001)                   T
(PID.TID 0000.0001)     ;
(PID.TID 0000.0001) momViscosity =  /* Momentum viscosity on/off flag */
(PID.TID 0000.0001)                   T
(PID.TID 0000.0001)     ;
(PID.TID 0000.0001) momImplVertAdv =/* Momentum implicit vert. advection on/off*/
(PID.TID 0000.0001)                   F
(PID.TID 0000.0001)     ;
(PID.TID 0000.0001) implicitViscosity = /* Implicit viscosity on/off flag */
(PID.TID 0000.0001)                   F
(PID.TID 0000.0001)     ;
(PID.TID 0000.0001) useCoriolis =  /* Coriolis on/off flag */
(PID.TID 0000.0001)                   T
(PID.TID 0000.0001)     ;
(PID.TID 0000.0001) useCDscheme =  /* CD scheme on/off flag */
(PID.TID 0000.0001)                   F
(PID.TID 0000.0001)     ;
(PID.TID 0000.0001) useJamartWetPoints= /* Coriolis WetPoints method flag */
(PID.TID 0000.0001)                   F
(PID.TID 0000.0001)     ;
(PID.TID 0000.0001) useJamartMomAdv= /* V.I. Non-linear terms Jamart flag */
(PID.TID 0000.0001)                   F
(PID.TID 0000.0001)     ;
(PID.TID 0000.0001) SadournyCoriolis= /* Sadourny Coriolis discr. flag */
(PID.TID 0000.0001)                   F
(PID.TID 0000.0001)     ;
(PID.TID 0000.0001) upwindVorticity= /* Upwind bias vorticity flag */
(PID.TID 0000.0001)                   F
(PID.TID 0000.0001)     ;
(PID.TID 0000.0001) useAbsVorticity= /* Work with f+zeta in Coriolis */
(PID.TID 0000.0001)                   F
(PID.TID 0000.0001)     ;
(PID.TID 0000.0001) highOrderVorticity= /* High order interp. of vort. flag */
(PID.TID 0000.0001)                   F
(PID.TID 0000.0001)     ;
(PID.TID 0000.0001) momForcing =  /* Momentum forcing on/off flag */
(PID.TID 0000.0001)                   T
(PID.TID 0000.0001)     ;
(PID.TID 0000.0001) momPressureForcing =  /* Momentum pressure term on/off flag */
(PID.TID 0000.0001)                   T
(PID.TID 0000.0001)     ;
(PID.TID 0000.0001) staggerTimeStep =   /* Stagger time stepping on/off flag */
(PID.TID 0000.0001)                   T
(PID.TID 0000.0001)     ;
(PID.TID 0000.0001) multiDimAdvection =   /* enable/disable Multi-Dim Advection */
(PID.TID 0000.0001)                   T
(PID.TID 0000.0001)     ;
(PID.TID 0000.0001) useMultiDimAdvec =   /* Multi-Dim Advection is/is-not used */
(PID.TID 0000.0001)                   F
(PID.TID 0000.0001)     ;
(PID.TID 0000.0001) implicitDiffusion =/* Implicit Diffusion on/off flag */
(PID.TID 0000.0001)                   F
(PID.TID 0000.0001)     ;
(PID.TID 0000.0001) tempStepping =  /* Temperature equation on/off flag */
(PID.TID 0000.0001)                   T
(PID.TID 0000.0001)     ;
(PID.TID 0000.0001) tempAdvection=  /* Temperature advection on/off flag */
(PID.TID 0000.0001)                   T
(PID.TID 0000.0001)     ;
(PID.TID 0000.0001) tempImplVertAdv =/* Temp. implicit vert. advection on/off */
(PID.TID 0000.0001)                   F
(PID.TID 0000.0001)     ;
(PID.TID 0000.0001) tempForcing  =  /* Temperature forcing on/off flag */
(PID.TID 0000.0001)                   T
(PID.TID 0000.0001)     ;
(PID.TID 0000.0001) saltStepping =  /* Salinity equation on/off flag */
(PID.TID 0000.0001)                   T
(PID.TID 0000.0001)     ;
(PID.TID 0000.0001) saltAdvection=  /* Salinity advection on/off flag */
(PID.TID 0000.0001)                   T
(PID.TID 0000.0001)     ;
(PID.TID 0000.0001) saltImplVertAdv =/* Sali. implicit vert. advection on/off */
(PID.TID 0000.0001)                   F
(PID.TID 0000.0001)     ;
(PID.TID 0000.0001) saltForcing  =  /* Salinity forcing on/off flag */
(PID.TID 0000.0001)                   T
(PID.TID 0000.0001)     ;
(PID.TID 0000.0001) //
(PID.TID 0000.0001) // Elliptic solver(s) paramters ( PARM02 in namelist )
(PID.TID 0000.0001) //
(PID.TID 0000.0001) cg2dMaxIters =   /* Upper limit on 2d con. grad iterations  */
(PID.TID 0000.0001)                     600
(PID.TID 0000.0001)     ;
(PID.TID 0000.0001) cg2dChkResFreq =   /* 2d con. grad convergence test frequency */
(PID.TID 0000.0001)                       1
(PID.TID 0000.0001)     ;
(PID.TID 0000.0001) cg2dTargetResidual =   /* 2d con. grad target residual  */
(PID.TID 0000.0001)                 1.000000000000000E-13
(PID.TID 0000.0001)     ;
(PID.TID 0000.0001) cg2dTargetResWunit =   /* CG2d target residual [W units] */
(PID.TID 0000.0001)                -1.000000000000000E+00
(PID.TID 0000.0001)     ;
(PID.TID 0000.0001) cg2dPreCondFreq =   /* Freq. for updating cg2d preconditioner */
(PID.TID 0000.0001)                       1
(PID.TID 0000.0001)     ;
(PID.TID 0000.0001) //
(PID.TID 0000.0001) // Time stepping paramters ( PARM03 in namelist )
(PID.TID 0000.0001) //
(PID.TID 0000.0001) nIter0 =   /* Base timestep number  */
(PID.TID 0000.0001)                       0
(PID.TID 0000.0001)     ;
(PID.TID 0000.0001) nTimeSteps =   /* Number of timesteps */
(PID.TID 0000.0001)                      10
(PID.TID 0000.0001)     ;
(PID.TID 0000.0001) deltatTmom =   /* Momentum equation timestep ( s ) */
(PID.TID 0000.0001)                 1.200000000000000E+03
(PID.TID 0000.0001)     ;
(PID.TID 0000.0001) deltaTfreesurf =   /* FreeSurface equation timestep ( s ) */
(PID.TID 0000.0001)                 1.200000000000000E+03
(PID.TID 0000.0001)     ;
(PID.TID 0000.0001) deltatTtracer =   /* Tracer equation timestep ( s ) */
(PID.TID 0000.0001)                 1.200000000000000E+03
(PID.TID 0000.0001)     ;
(PID.TID 0000.0001) deltatTClock  =   /* Model clock timestep ( s ) */
(PID.TID 0000.0001)                 1.200000000000000E+03
(PID.TID 0000.0001)     ;
(PID.TID 0000.0001) cAdjFreq =   /* Convective adjustment interval ( s ) */
(PID.TID 0000.0001)                 0.000000000000000E+00
(PID.TID 0000.0001)     ;
(PID.TID 0000.0001) forcing_In_AB =   /* put T,S Forcing in Adams-Bash. stepping */
(PID.TID 0000.0001)                   T
(PID.TID 0000.0001)     ;
(PID.TID 0000.0001) abeps =   /* Adams-Bashforth stabilizing weight */
(PID.TID 0000.0001)                 1.000000000000000E-01
(PID.TID 0000.0001)     ;
(PID.TID 0000.0001) startTime =   /* Run start time ( s ). */
(PID.TID 0000.0001)                 0.000000000000000E+00
(PID.TID 0000.0001)     ;
(PID.TID 0000.0001) endTime =   /* Integration ending time ( s ). */
(PID.TID 0000.0001)                 1.200000000000000E+04
(PID.TID 0000.0001)     ;
(PID.TID 0000.0001) pChkPtFreq =   /* Permanent restart/checkpoint file interval ( s ). */
(PID.TID 0000.0001)                 0.000000000000000E+00
(PID.TID 0000.0001)     ;
(PID.TID 0000.0001) chkPtFreq =   /* Rolling restart/checkpoint file interval ( s ). */
(PID.TID 0000.0001)                 0.000000000000000E+00
(PID.TID 0000.0001)     ;
(PID.TID 0000.0001) pickup_write_mdsio =   /* Model IO flag. */
(PID.TID 0000.0001)                   T
(PID.TID 0000.0001)     ;
(PID.TID 0000.0001) pickup_read_mdsio =   /* Model IO flag. */
(PID.TID 0000.0001)                   T
(PID.TID 0000.0001)     ;
(PID.TID 0000.0001) pickup_write_immed =   /* Model IO flag. */
(PID.TID 0000.0001)                   F
(PID.TID 0000.0001)     ;
(PID.TID 0000.0001) dumpFreq =   /* Model state write out interval ( s ). */
(PID.TID 0000.0001)                 2.592000000000000E+06
(PID.TID 0000.0001)     ;
(PID.TID 0000.0001) snapshot_mdsio =   /* Model IO flag. */
(PID.TID 0000.0001)                   T
(PID.TID 0000.0001)     ;
(PID.TID 0000.0001) monitorFreq =   /* Monitor output interval ( s ). */
(PID.TID 0000.0001)                 1.000000000000000E+00
(PID.TID 0000.0001)     ;
(PID.TID 0000.0001) monitor_stdio =   /* Model IO flag. */
(PID.TID 0000.0001)                   T
(PID.TID 0000.0001)     ;
(PID.TID 0000.0001) externForcingPeriod =   /* forcing period (s) */
(PID.TID 0000.0001)                 0.000000000000000E+00
(PID.TID 0000.0001)     ;
(PID.TID 0000.0001) externForcingCycle =   /* period of the cyle (s). */
(PID.TID 0000.0001)                 0.000000000000000E+00
(PID.TID 0000.0001)     ;
(PID.TID 0000.0001) tauThetaClimRelax =   /* relaxation time scale (s) */
(PID.TID 0000.0001)                 0.000000000000000E+00
(PID.TID 0000.0001)     ;
(PID.TID 0000.0001) tauSaltClimRelax =   /* relaxation time scale (s) */
(PID.TID 0000.0001)                 0.000000000000000E+00
(PID.TID 0000.0001)     ;
(PID.TID 0000.0001) latBandClimRelax =   /* max. Lat. where relaxation */
(PID.TID 0000.0001)                 1.800000000000000E+02
(PID.TID 0000.0001)     ;
(PID.TID 0000.0001) //
(PID.TID 0000.0001) // Gridding paramters ( PARM04 in namelist )
(PID.TID 0000.0001) //
(PID.TID 0000.0001) usingCartesianGrid =   /* Cartesian coordinates flag ( True / False ) */
(PID.TID 0000.0001)                   F
(PID.TID 0000.0001)     ;
(PID.TID 0000.0001) usingSphericalPolarGrid =   /* Spherical coordinates flag ( True / False ) */
(PID.TID 0000.0001)                   T
(PID.TID 0000.0001)     ;
(PID.TID 0000.0001) usingCylindricalGrid =   /* Spherical coordinates flag ( True / False ) */
(PID.TID 0000.0001)                   F
(PID.TID 0000.0001)     ;
(PID.TID 0000.0001) groundAtK1 =   /* Lower Boundary (ground) at the surface(k=1) ( T / F ) */
(PID.TID 0000.0001)                   T
(PID.TID 0000.0001)     ;
(PID.TID 0000.0001) Ro_SeaLevel =   /* r(1) ( units of r ) */
(PID.TID 0000.0001)                 1.000000000000000E+05
(PID.TID 0000.0001)     ;
(PID.TID 0000.0001) rkFac =   /* minus Vertical index orientation  */
(PID.TID 0000.0001)                 1.000000000000000E+00
(PID.TID 0000.0001)     ;
(PID.TID 0000.0001) horiVertRatio =   /* Ratio on units : Horiz - Vertical */
(PID.TID 0000.0001)                 9.810000000000000E+00
(PID.TID 0000.0001)     ;
(PID.TID 0000.0001) drC =   /* C spacing ( units of r ) */
(PID.TID 0000.0001)                 5.000000000000000E+03,      /* K =  1 */
(PID.TID 0000.0001)                 1.750000000000000E+04,      /* K =  2 */
(PID.TID 0000.0001)                 2.750000000000000E+04,      /* K =  3 */
(PID.TID 0000.0001)                 2.500000000000000E+04,      /* K =  4 */
(PID.TID 0000.0001)                 1.750000000000000E+04       /* K =  5 */
(PID.TID 0000.0001)     ;
(PID.TID 0000.0001) drF =   /* W spacing ( units of r ) */
(PID.TID 0000.0001)                 1.000000000000000E+04,      /* K =  1 */
(PID.TID 0000.0001)                 2.500000000000000E+04,      /* K =  2 */
(PID.TID 0000.0001)                 3.000000000000000E+04,      /* K =  3 */
(PID.TID 0000.0001)                 2.000000000000000E+04,      /* K =  4 */
(PID.TID 0000.0001)                 1.500000000000000E+04       /* K =  5 */
(PID.TID 0000.0001)     ;
(PID.TID 0000.0001) delX =   /* U spacing ( m - cartesian, degrees - spherical ) */
(PID.TID 0000.0001)                 2.812500000000000E+00,      /* I =  1 */
(PID.TID 0000.0001)                 1.234567000000000E+05       /* I =  2 */
(PID.TID 0000.0001)     ;
(PID.TID 0000.0001) delY =   /* V spacing ( m - cartesian, degrees - spherical ) */
(PID.TID 0000.0001)    64 @  2.812500000000000E+00              /* J =  1: 64 */
(PID.TID 0000.0001)     ;
(PID.TID 0000.0001) phiMin =    /* South edge (ignored - cartesian, degrees - spherical ) */
(PID.TID 0000.0001)                -9.000000000000000E+01
(PID.TID 0000.0001)     ;
(PID.TID 0000.0001) thetaMin =    /* West edge ( ignored - cartesian, degrees - spherical ) */
(PID.TID 0000.0001)                 0.000000000000000E+00
(PID.TID 0000.0001)     ;
(PID.TID 0000.0001) rSphere =    /* Radius ( ignored - cartesian, m - spherical ) */
(PID.TID 0000.0001)                 6.370000000000000E+06
(PID.TID 0000.0001)     ;
(PID.TID 0000.0001) xcoord =   /* P-point X coord ( m - cartesian, degrees - spherical ) */
(PID.TID 0000.0001)                 1.406250000000000E+00,      /* I =  1 */
(PID.TID 0000.0001)                 6.173116250000000E+04       /* I =  2 */
(PID.TID 0000.0001)     ;
(PID.TID 0000.0001) ycoord =   /* P-point Y coord ( m - cartesian, degrees - spherical ) */
(PID.TID 0000.0001)                -8.859375000000000E+01,      /* J =  1 */
(PID.TID 0000.0001)                -8.578125000000000E+01,      /* J =  2 */
(PID.TID 0000.0001)                -8.296875000000000E+01,      /* J =  3 */
(PID.TID 0000.0001)                -8.015625000000000E+01,      /* J =  4 */
(PID.TID 0000.0001)                -7.734375000000000E+01,      /* J =  5 */
(PID.TID 0000.0001)                -7.453125000000000E+01,      /* J =  6 */
(PID.TID 0000.0001)                -7.171875000000000E+01,      /* J =  7 */
(PID.TID 0000.0001)                -6.890625000000000E+01,      /* J =  8 */
(PID.TID 0000.0001)                -6.609375000000000E+01,      /* J =  9 */
(PID.TID 0000.0001)                -6.328125000000000E+01,      /* J = 10 */
(PID.TID 0000.0001)                -6.046875000000000E+01,      /* J = 11 */
(PID.TID 0000.0001)                -5.765625000000000E+01,      /* J = 12 */
(PID.TID 0000.0001)                -5.484375000000000E+01,      /* J = 13 */
(PID.TID 0000.0001)                -5.203125000000000E+01,      /* J = 14 */
(PID.TID 0000.0001)                -4.921875000000000E+01,      /* J = 15 */
(PID.TID 0000.0001)                -4.640625000000000E+01,      /* J = 16 */
(PID.TID 0000.0001)                -4.359375000000000E+01,      /* J = 17 */
(PID.TID 0000.0001)                -4.078125000000000E+01,      /* J = 18 */
(PID.TID 0000.0001)                -3.796875000000000E+01,      /* J = 19 */
(PID.TID 0000.0001)                -3.515625000000000E+01,      /* J = 20 */
(PID.TID 0000.0001)                -3.234375000000000E+01,      /* J = 21 */
(PID.TID 0000.0001)                -2.953125000000000E+01,      /* J = 22 */
(PID.TID 0000.0001)                -2.671875000000000E+01,      /* J = 23 */
(PID.TID 0000.0001)                -2.390625000000000E+01,      /* J = 24 */
(PID.TID 0000.0001)                -2.109375000000000E+01,      /* J = 25 */
(PID.TID 0000.0001)                -1.828125000000000E+01,      /* J = 26 */
(PID.TID 0000.0001)                -1.546875000000000E+01,      /* J = 27 */
(PID.TID 0000.0001)                -1.265625000000000E+01,      /* J = 28 */
(PID.TID 0000.0001)                -9.843750000000000E+00,      /* J = 29 */
(PID.TID 0000.0001)                -7.031250000000000E+00,      /* J = 30 */
(PID.TID 0000.0001)                -4.218750000000000E+00,      /* J = 31 */
(PID.TID 0000.0001)                -1.406250000000000E+00,      /* J = 32 */
(PID.TID 0000.0001)                 1.406250000000000E+00,      /* J = 33 */
(PID.TID 0000.0001)                 4.218750000000000E+00,      /* J = 34 */
(PID.TID 0000.0001)                 7.031250000000000E+00,      /* J = 35 */
(PID.TID 0000.0001)                 9.843750000000000E+00,      /* J = 36 */
(PID.TID 0000.0001)                 1.265625000000000E+01,      /* J = 37 */
(PID.TID 0000.0001)                 1.546875000000000E+01,      /* J = 38 */
(PID.TID 0000.0001)                 1.828125000000000E+01,      /* J = 39 */
(PID.TID 0000.0001)                 2.109375000000000E+01,      /* J = 40 */
(PID.TID 0000.0001)                 2.390625000000000E+01,      /* J = 41 */
(PID.TID 0000.0001)                 2.671875000000000E+01,      /* J = 42 */
(PID.TID 0000.0001)                 2.953125000000000E+01,      /* J = 43 */
(PID.TID 0000.0001)                 3.234375000000000E+01,      /* J = 44 */
(PID.TID 0000.0001)                 3.515625000000000E+01,      /* J = 45 */
(PID.TID 0000.0001)                 3.796875000000000E+01,      /* J = 46 */
(PID.TID 0000.0001)                 4.078125000000000E+01,      /* J = 47 */
(PID.TID 0000.0001)                 4.359375000000000E+01,      /* J = 48 */
(PID.TID 0000.0001)                 4.640625000000000E+01,      /* J = 49 */
(PID.TID 0000.0001)                 4.921875000000000E+01,      /* J = 50 */
(PID.TID 0000.0001)                 5.203125000000000E+01,      /* J = 51 */
(PID.TID 0000.0001)                 5.484375000000000E+01,      /* J = 52 */
(PID.TID 0000.0001)                 5.765625000000000E+01,      /* J = 53 */
(PID.TID 0000.0001)                 6.046875000000000E+01,      /* J = 54 */
(PID.TID 0000.0001)                 6.328125000000000E+01,      /* J = 55 */
(PID.TID 0000.0001)                 6.609375000000000E+01,      /* J = 56 */
(PID.TID 0000.0001)                 6.890625000000000E+01,      /* J = 57 */
(PID.TID 0000.0001)                 7.171875000000000E+01,      /* J = 58 */
(PID.TID 0000.0001)                 7.453125000000000E+01,      /* J = 59 */
(PID.TID 0000.0001)                 7.734375000000000E+01,      /* J = 60 */
(PID.TID 0000.0001)                 8.015625000000000E+01,      /* J = 61 */
(PID.TID 0000.0001)                 8.296875000000000E+01,      /* J = 62 */
(PID.TID 0000.0001)                 8.578125000000000E+01,      /* J = 63 */
(PID.TID 0000.0001)                 8.859375000000000E+01       /* J = 64 */
(PID.TID 0000.0001)     ;
(PID.TID 0000.0001) rcoord =   /* P-point R coordinate (  units of r ) */
(PID.TID 0000.0001)                 9.500000000000000E+04,      /* K =  1 */
(PID.TID 0000.0001)                 7.750000000000000E+04,      /* K =  2 */
(PID.TID 0000.0001)                 5.000000000000000E+04,      /* K =  3 */
(PID.TID 0000.0001)                 2.500000000000000E+04,      /* K =  4 */
(PID.TID 0000.0001)                 7.500000000000000E+03       /* K =  5 */
(PID.TID 0000.0001)     ;
(PID.TID 0000.0001) rF =   /* W-Interf. R coordinate (  units of r ) */
(PID.TID 0000.0001)                 1.000000000000000E+05,      /* K =  1 */
(PID.TID 0000.0001)                 9.000000000000000E+04,      /* K =  2 */
(PID.TID 0000.0001)                 6.500000000000000E+04,      /* K =  3 */
(PID.TID 0000.0001)                 3.500000000000000E+04,      /* K =  4 */
(PID.TID 0000.0001)                 1.500000000000000E+04,      /* K =  5 */
(PID.TID 0000.0001)                 0.000000000000000E+00       /* K =  6 */
(PID.TID 0000.0001)     ;
(PID.TID 0000.0001) dxF =  /* dxF(:,1,:,1) ( m - cartesian, degrees - spherical ) */
(PID.TID 0000.0001)                 7.673714381622298E+03,      /* I =  1 */
(PID.TID 0000.0001)                 3.368431837502683E+08       /* I =  2 */
(PID.TID 0000.0001)     ;
(PID.TID 0000.0001) dxF =  /* dxF(1,:,1,:) ( m - cartesian, degrees - spherical ) */
(PID.TID 0000.0001)                 7.673714381622298E+03,      /* J =  1 */
(PID.TID 0000.0001)                 2.300265649478360E+04,      /* J =  2 */
(PID.TID 0000.0001)                 3.827618319365421E+04,      /* J =  3 */
(PID.TID 0000.0001)                 5.345749921461356E+04,      /* J =  4 */
(PID.TID 0000.0001)                 6.851003143764105E+04,      /* J =  5 */
(PID.TID 0000.0001)                 8.339751699416523E+04,      /* J =  6 */
(PID.TID 0000.0001)                 9.808409062749070E+04,      /* J =  7 */
(PID.TID 0000.0001)                 1.125343710953429E+05,      /* J =  8 */
(PID.TID 0000.0001)                 1.267135464063795E+05,      /* J =  9 */
(PID.TID 0000.0001)                 1.405874576853274E+05,      /* J = 10 */
(PID.TID 0000.0001)                 1.541226814647045E+05,      /* J = 11 */
(PID.TID 0000.0001)                 1.672866102048804E+05,      /* J = 12 */
(PID.TID 0000.0001)                 1.800475308484964E+05,      /* J = 13 */
(PID.TID 0000.0001)                 1.923747012199971E+05,      /* J = 14 */
(PID.TID 0000.0001)                 2.042384240862251E+05,      /* J = 15 */
(PID.TID 0000.0001)                 2.156101186996563E+05,      /* J = 16 */
(PID.TID 0000.0001)                 2.264623896519241E+05,      /* J = 17 */
(PID.TID 0000.0001)                 2.367690928717576E+05,      /* J = 18 */
(PID.TID 0000.0001)                 2.465053986083400E+05,      /* J = 19 */
(PID.TID 0000.0001)                 2.556478512483520E+05,      /* J = 20 */
(PID.TID 0000.0001)                 2.641744258225996E+05,      /* J = 21 */
(PID.TID 0000.0001)                 2.720645810660936E+05,      /* J = 22 */
(PID.TID 0000.0001)                 2.792993089037566E+05,      /* J = 23 */
(PID.TID 0000.0001)                 2.858611802425402E+05,      /* J = 24 */
(PID.TID 0000.0001)                 2.917343869596373E+05,      /* J = 25 */
(PID.TID 0000.0001)                 2.969047799856343E+05,      /* J = 26 */
(PID.TID 0000.0001)                 3.013599033908587E+05,      /* J = 27 */
(PID.TID 0000.0001)                 3.050890243928044E+05,      /* J = 28 */
(PID.TID 0000.0001)                 3.080831592123453E+05,      /* J = 29 */
(PID.TID 0000.0001)                 3.103350947164461E+05,      /* J = 30 */
(PID.TID 0000.0001)                 3.118394057952310E+05,      /* J = 31 */
(PID.TID 0000.0001)     2 @  3.125924684315491E+05,             /* J = 32: 33 */
(PID.TID 0000.0001)                 3.118394057952310E+05,      /* J = 34 */
(PID.TID 0000.0001)                 3.103350947164461E+05,      /* J = 35 */
(PID.TID 0000.0001)                 3.080831592123453E+05,      /* J = 36 */
(PID.TID 0000.0001)                 3.050890243928044E+05,      /* J = 37 */
(PID.TID 0000.0001)                 3.013599033908587E+05,      /* J = 38 */
(PID.TID 0000.0001)                 2.969047799856343E+05,      /* J = 39 */
(PID.TID 0000.0001)                 2.917343869596373E+05,      /* J = 40 */
(PID.TID 0000.0001)                 2.858611802425402E+05,      /* J = 41 */
(PID.TID 0000.0001)                 2.792993089037566E+05,      /* J = 42 */
(PID.TID 0000.0001)                 2.720645810660936E+05,      /* J = 43 */
(PID.TID 0000.0001)                 2.641744258225996E+05,      /* J = 44 */
(PID.TID 0000.0001)                 2.556478512483520E+05,      /* J = 45 */
(PID.TID 0000.0001)                 2.465053986083400E+05,      /* J = 46 */
(PID.TID 0000.0001)                 2.367690928717576E+05,      /* J = 47 */
(PID.TID 0000.0001)                 2.264623896519241E+05,      /* J = 48 */
(PID.TID 0000.0001)                 2.156101186996563E+05,      /* J = 49 */
(PID.TID 0000.0001)                 2.042384240862251E+05,      /* J = 50 */
(PID.TID 0000.0001)                 1.923747012199971E+05,      /* J = 51 */
(PID.TID 0000.0001)                 1.800475308484964E+05,      /* J = 52 */
(PID.TID 0000.0001)                 1.672866102048804E+05,      /* J = 53 */
(PID.TID 0000.0001)                 1.541226814647045E+05,      /* J = 54 */
(PID.TID 0000.0001)                 1.405874576853274E+05,      /* J = 55 */
(PID.TID 0000.0001)                 1.267135464063795E+05,      /* J = 56 */
(PID.TID 0000.0001)                 1.125343710953429E+05,      /* J = 57 */
(PID.TID 0000.0001)                 9.808409062749070E+04,      /* J = 58 */
(PID.TID 0000.0001)                 8.339751699416523E+04,      /* J = 59 */
(PID.TID 0000.0001)                 6.851003143764105E+04,      /* J = 60 */
(PID.TID 0000.0001)                 5.345749921461356E+04,      /* J = 61 */
(PID.TID 0000.0001)                 3.827618319365421E+04,      /* J = 62 */
(PID.TID 0000.0001)                 2.300265649478360E+04,      /* J = 63 */
(PID.TID 0000.0001)                 7.673714381622298E+03       /* J = 64 */
(PID.TID 0000.0001)     ;
(PID.TID 0000.0001) dyF =  /* dyF(:,1,:,1) ( m - cartesian, degrees - spherical ) */
(PID.TID 0000.0001)     2 @  3.126866438026091E+05              /* I =  1:  2 */
(PID.TID 0000.0001)     ;
(PID.TID 0000.0001) dyF =  /* dyF(1,:,1,:) ( m - cartesian, degrees - spherical ) */
(PID.TID 0000.0001)    64 @  3.126866438026091E+05              /* J =  1: 64 */
(PID.TID 0000.0001)     ;
(PID.TID 0000.0001) dxG =  /* dxG(:,1,:,1) ( m - cartesian, degrees - spherical ) */
(PID.TID 0000.0001)     2 @  0.000000000000000E+00              /* I =  1:  2 */
(PID.TID 0000.0001)     ;
(PID.TID 0000.0001) dxG =  /* dxG(1,:,1,:) ( m - cartesian, degrees - spherical ) */
(PID.TID 0000.0001)                 0.000000000000000E+00,      /* J =  1 */
(PID.TID 0000.0001)                 1.534280640463982E+04,      /* J =  2 */
(PID.TID 0000.0001)                 3.064865064477965E+04,      /* J =  3 */
(PID.TID 0000.0001)                 4.588065960101153E+04,      /* J =  4 */
(PID.TID 0000.0001)                 6.100213802959342E+04,      /* J =  5 */
(PID.TID 0000.0001)                 7.597665696450579E+04,      /* J =  6 */
(PID.TID 0000.0001)                 9.076814147802140E+04,      /* J =  7 */
(PID.TID 0000.0001)                 1.053409575883663E+05,      /* J =  8 */
(PID.TID 0000.0001)                 1.196599981051027E+05,      /* J =  9 */
(PID.TID 0000.0001)                 1.336907672054259E+05,      /* J = 10 */
(PID.TID 0000.0001)                 1.473994635376230E+05,      /* J = 11 */
(PID.TID 0000.0001)                 1.607530616514898E+05,      /* J = 12 */
(PID.TID 0000.0001)                 1.737193915595329E+05,      /* J = 13 */
(PID.TID 0000.0001)                 1.862672162372875E+05,      /* J = 14 */
(PID.TID 0000.0001)                 1.983663068760452E+05,      /* J = 15 */
(PID.TID 0000.0001)                 2.099875157067021E+05,      /* J = 16 */
(PID.TID 0000.0001)                 2.211028462192875E+05,      /* J = 17 */
(PID.TID 0000.0001)                 2.316855206090085E+05,      /* J = 18 */
(PID.TID 0000.0001)                 2.417100442863275E+05,      /* J = 19 */
(PID.TID 0000.0001)                 2.511522672956614E+05,      /* J = 20 */
(PID.TID 0000.0001)                 2.599894424947395E+05,      /* J = 21 */
(PID.TID 0000.0001)                 2.682002803544621E+05,      /* J = 22 */
(PID.TID 0000.0001)                 2.757650002472408E+05,      /* J = 23 */
(PID.TID 0000.0001)                 2.826653781002625E+05,      /* J = 24 */
(PID.TID 0000.0001)                 2.888847902988777E+05,      /* J = 25 */
(PID.TID 0000.0001)                 2.944082537343438E+05,      /* J = 26 */
(PID.TID 0000.0001)                 2.992224618994464E+05,      /* J = 27 */
(PID.TID 0000.0001)                 3.033158169450409E+05,      /* J = 28 */
(PID.TID 0000.0001)                 3.066784576202870E+05,      /* J = 29 */
(PID.TID 0000.0001)                 3.093022830292655E+05,      /* J = 30 */
(PID.TID 0000.0001)                 3.111809721467461E+05,      /* J = 31 */
(PID.TID 0000.0001)                 3.123099990460912E+05,      /* J = 32 */
(PID.TID 0000.0001)                 3.126866438026091E+05,      /* J = 33 */
(PID.TID 0000.0001)                 3.123099990460912E+05,      /* J = 34 */
(PID.TID 0000.0001)                 3.111809721467461E+05,      /* J = 35 */
(PID.TID 0000.0001)                 3.093022830292655E+05,      /* J = 36 */
(PID.TID 0000.0001)                 3.066784576202870E+05,      /* J = 37 */
(PID.TID 0000.0001)                 3.033158169450409E+05,      /* J = 38 */
(PID.TID 0000.0001)                 2.992224618994464E+05,      /* J = 39 */
(PID.TID 0000.0001)                 2.944082537343438E+05,      /* J = 40 */
(PID.TID 0000.0001)                 2.888847902988777E+05,      /* J = 41 */
(PID.TID 0000.0001)                 2.826653781002625E+05,      /* J = 42 */
(PID.TID 0000.0001)                 2.757650002472408E+05,      /* J = 43 */
(PID.TID 0000.0001)                 2.682002803544621E+05,      /* J = 44 */
(PID.TID 0000.0001)                 2.599894424947395E+05,      /* J = 45 */
(PID.TID 0000.0001)                 2.511522672956614E+05,      /* J = 46 */
(PID.TID 0000.0001)                 2.417100442863275E+05,      /* J = 47 */
(PID.TID 0000.0001)                 2.316855206090085E+05,      /* J = 48 */
(PID.TID 0000.0001)                 2.211028462192875E+05,      /* J = 49 */
(PID.TID 0000.0001)                 2.099875157067021E+05,      /* J = 50 */
(PID.TID 0000.0001)                 1.983663068760452E+05,      /* J = 51 */
(PID.TID 0000.0001)                 1.862672162372875E+05,      /* J = 52 */
(PID.TID 0000.0001)                 1.737193915595329E+05,      /* J = 53 */
(PID.TID 0000.0001)                 1.607530616514898E+05,      /* J = 54 */
(PID.TID 0000.0001)                 1.473994635376230E+05,      /* J = 55 */
(PID.TID 0000.0001)                 1.336907672054259E+05,      /* J = 56 */
(PID.TID 0000.0001)                 1.196599981051027E+05,      /* J = 57 */
(PID.TID 0000.0001)                 1.053409575883663E+05,      /* J = 58 */
(PID.TID 0000.0001)                 9.076814147802140E+04,      /* J = 59 */
(PID.TID 0000.0001)                 7.597665696450579E+04,      /* J = 60 */
(PID.TID 0000.0001)                 6.100213802959342E+04,      /* J = 61 */
(PID.TID 0000.0001)                 4.588065960101153E+04,      /* J = 62 */
(PID.TID 0000.0001)                 3.064865064477965E+04,      /* J = 63 */
(PID.TID 0000.0001)                 1.534280640463982E+04       /* J = 64 */
(PID.TID 0000.0001)     ;
(PID.TID 0000.0001) dyG =  /* dyG(:,1,:,1) ( m - cartesian, degrees - spherical ) */
(PID.TID 0000.0001)     2 @  3.126866438026091E+05              /* I =  1:  2 */
(PID.TID 0000.0001)     ;
(PID.TID 0000.0001) dyG =  /* dyG(1,:,1,:) ( m - cartesian, degrees - spherical ) */
(PID.TID 0000.0001)    64 @  3.126866438026091E+05              /* J =  1: 64 */
(PID.TID 0000.0001)     ;
(PID.TID 0000.0001) dxC =  /* dxC(:,1,:,1) ( m - cartesian, degrees - spherical ) */
(PID.TID 0000.0001)     2 @  1.684254287323250E+08              /* I =  1:  2 */
(PID.TID 0000.0001)     ;
(PID.TID 0000.0001) dxC =  /* dxC(1,:,1,:) ( m - cartesian, degrees - spherical ) */
(PID.TID 0000.0001)                 1.684254287323250E+08,      /* J =  1 */
(PID.TID 0000.0001)                 5.048705345868341E+08,      /* J =  2 */
(PID.TID 0000.0001)                 8.400993631020876E+08,      /* J =  3 */
(PID.TID 0000.0001)                 1.173304318667613E+09,      /* J =  4 */
(PID.TID 0000.0001)                 1.503682681360149E+09,      /* J =  5 */
(PID.TID 0000.0001)                 1.830438540766241E+09,      /* J =  6 */
(PID.TID 0000.0001)                 2.152784713400146E+09,      /* J =  7 */
(PID.TID 0000.0001)                 2.469944639097799E+09,      /* J =  8 */
(PID.TID 0000.0001)                 2.781154251818265E+09,      /* J =  9 */
(PID.TID 0000.0001)                 3.085663820345761E+09,      /* J = 10 */
(PID.TID 0000.0001)                 3.382739754457813E+09,      /* J = 11 */
(PID.TID 0000.0001)                 3.671666372208367E+09,      /* J = 12 */
(PID.TID 0000.0001)                 3.951747624068280E+09,      /* J = 13 */
(PID.TID 0000.0001)                 4.222308769769599E+09,      /* J = 14 */
(PID.TID 0000.0001)                 4.482698003813975E+09,      /* J = 15 */
(PID.TID 0000.0001)                 4.732288025729191E+09,      /* J = 16 */
(PID.TID 0000.0001)                 4.970477551290949E+09,      /* J = 17 */
(PID.TID 0000.0001)                 5.196692761069231E+09,      /* J = 18 */
(PID.TID 0000.0001)                 5.410388682809571E+09,      /* J = 19 */
(PID.TID 0000.0001)                 5.611050504318942E+09,      /* J = 20 */
(PID.TID 0000.0001)                 5.798194813693431E+09,      /* J = 21 */
(PID.TID 0000.0001)                 5.971370763899847E+09,      /* J = 22 */
(PID.TID 0000.0001)                 6.130161158905723E+09,      /* J = 23 */
(PID.TID 0000.0001)                 6.274183458741092E+09,      /* J = 24 */
(PID.TID 0000.0001)                 6.403090701070787E+09,      /* J = 25 */
(PID.TID 0000.0001)                 6.516572337057097E+09,      /* J = 26 */
(PID.TID 0000.0001)                 6.614354979499112E+09,      /* J = 27 */
(PID.TID 0000.0001)                 6.696203061446442E+09,      /* J = 28 */
(PID.TID 0000.0001)                 6.761919403700629E+09,      /* J = 29 */
(PID.TID 0000.0001)                 6.811345689837113E+09,      /* J = 30 */
(PID.TID 0000.0001)                 6.844362847603358E+09,      /* J = 31 */
(PID.TID 0000.0001)     2 @  6.860891335774345E+09,             /* J = 32: 33 */
(PID.TID 0000.0001)                 6.844362847603358E+09,      /* J = 34 */
(PID.TID 0000.0001)                 6.811345689837113E+09,      /* J = 35 */
(PID.TID 0000.0001)                 6.761919403700629E+09,      /* J = 36 */
(PID.TID 0000.0001)                 6.696203061446442E+09,      /* J = 37 */
(PID.TID 0000.0001)                 6.614354979499112E+09,      /* J = 38 */
(PID.TID 0000.0001)                 6.516572337057097E+09,      /* J = 39 */
(PID.TID 0000.0001)                 6.403090701070787E+09,      /* J = 40 */
(PID.TID 0000.0001)                 6.274183458741092E+09,      /* J = 41 */
(PID.TID 0000.0001)                 6.130161158905723E+09,      /* J = 42 */
(PID.TID 0000.0001)                 5.971370763899847E+09,      /* J = 43 */
(PID.TID 0000.0001)                 5.798194813693431E+09,      /* J = 44 */
(PID.TID 0000.0001)                 5.611050504318942E+09,      /* J = 45 */
(PID.TID 0000.0001)                 5.410388682809571E+09,      /* J = 46 */
(PID.TID 0000.0001)                 5.196692761069231E+09,      /* J = 47 */
(PID.TID 0000.0001)                 4.970477551290949E+09,      /* J = 48 */
(PID.TID 0000.0001)                 4.732288025729191E+09,      /* J = 49 */
(PID.TID 0000.0001)                 4.482698003813975E+09,      /* J = 50 */
(PID.TID 0000.0001)                 4.222308769769599E+09,      /* J = 51 */
(PID.TID 0000.0001)                 3.951747624068280E+09,      /* J = 52 */
(PID.TID 0000.0001)                 3.671666372208367E+09,      /* J = 53 */
(PID.TID 0000.0001)                 3.382739754457813E+09,      /* J = 54 */
(PID.TID 0000.0001)                 3.085663820345761E+09,      /* J = 55 */
(PID.TID 0000.0001)                 2.781154251818265E+09,      /* J = 56 */
(PID.TID 0000.0001)                 2.469944639097799E+09,      /* J = 57 */
(PID.TID 0000.0001)                 2.152784713400146E+09,      /* J = 58 */
(PID.TID 0000.0001)                 1.830438540766241E+09,      /* J = 59 */
(PID.TID 0000.0001)                 1.503682681360149E+09,      /* J = 60 */
(PID.TID 0000.0001)                 1.173304318667613E+09,      /* J = 61 */
(PID.TID 0000.0001)                 8.400993631020876E+08,      /* J = 62 */
(PID.TID 0000.0001)                 5.048705345868341E+08,      /* J = 63 */
(PID.TID 0000.0001)                 1.684254287323250E+08       /* J = 64 */
(PID.TID 0000.0001)     ;
(PID.TID 0000.0001) dyC =  /* dyC(:,1,:,1) ( m - cartesian, degrees - spherical ) */
(PID.TID 0000.0001)     2 @  3.126866438026091E+05              /* I =  1:  2 */
(PID.TID 0000.0001)     ;
(PID.TID 0000.0001) dyC =  /* dyC(1,:,1,:) ( m - cartesian, degrees - spherical ) */
(PID.TID 0000.0001)    64 @  3.126866438026091E+05              /* J =  1: 64 */
(PID.TID 0000.0001)     ;
(PID.TID 0000.0001) dxV =  /* dxV(:,1,:,1) ( m - cartesian, degrees - spherical ) */
(PID.TID 0000.0001)     2 @  0.000000000000000E+00              /* I =  1:  2 */
(PID.TID 0000.0001)     ;
(PID.TID 0000.0001) dxV =  /* dxV(1,:,1,:) ( m - cartesian, degrees - spherical ) */
(PID.TID 0000.0001)                 0.000000000000000E+00,      /* J =  1 */
(PID.TID 0000.0001)                 3.367494042842150E+08,      /* J =  2 */
(PID.TID 0000.0001)                 6.726875497577434E+08,      /* J =  3 */
(PID.TID 0000.0001)                 1.007005132003436E+09,      /* J =  4 */
(PID.TID 0000.0001)                 1.338896750682900E+09,      /* J =  5 */
(PID.TID 0000.0001)                 1.667562849816465E+09,      /* J =  6 */
(PID.TID 0000.0001)                 1.992211643983565E+09,      /* J =  7 */
(PID.TID 0000.0001)                 2.312061025803179E+09,      /* J =  8 */
(PID.TID 0000.0001)                 2.626340450099005E+09,      /* J =  9 */
(PID.TID 0000.0001)                 2.934292790210288E+09,      /* J = 10 */
(PID.TID 0000.0001)                 3.235176161976259E+09,      /* J = 11 */
(PID.TID 0000.0001)                 3.528265711000066E+09,      /* J = 12 */
(PID.TID 0000.0001)                 3.812855358886497E+09,      /* J = 13 */
(PID.TID 0000.0001)                 4.088259504246684E+09,      /* J = 14 */
(PID.TID 0000.0001)                 4.353814674371900E+09,      /* J = 15 */
(PID.TID 0000.0001)                 4.608881123597428E+09,      /* J = 16 */
(PID.TID 0000.0001)                 4.852844374505902E+09,      /* J = 17 */
(PID.TID 0000.0001)                 5.085116698257224E+09,      /* J = 18 */
(PID.TID 0000.0001)                 5.305138530478827E+09,      /* J = 19 */
(PID.TID 0000.0001)                 5.512379819305252E+09,      /* J = 20 */
(PID.TID 0000.0001)                 5.706341302319523E+09,      /* J = 21 */
(PID.TID 0000.0001)                 5.886555709320038E+09,      /* J = 22 */
(PID.TID 0000.0001)                 6.052588888015418E+09,      /* J = 23 */
(PID.TID 0000.0001)                 6.204040849935392E+09,      /* J = 24 */
(PID.TID 0000.0001)                 6.340546734038075E+09,      /* J = 25 */
(PID.TID 0000.0001)                 6.461777685692158E+09,      /* J = 26 */
(PID.TID 0000.0001)                 6.567441648916528E+09,      /* J = 27 */
(PID.TID 0000.0001)                 6.657284069968709E+09,      /* J = 28 */
(PID.TID 0000.0001)                 6.731088510587119E+09,      /* J = 29 */
(PID.TID 0000.0001)                 6.788677169409802E+09,      /* J = 30 */
(PID.TID 0000.0001)                 6.829911310313485E+09,      /* J = 31 */
(PID.TID 0000.0001)                 6.854691596641047E+09,      /* J = 32 */
(PID.TID 0000.0001)                 6.862958330512225E+09,      /* J = 33 */
(PID.TID 0000.0001)                 6.854691596641047E+09,      /* J = 34 */
(PID.TID 0000.0001)                 6.829911310313485E+09,      /* J = 35 */
(PID.TID 0000.0001)                 6.788677169409802E+09,      /* J = 36 */
(PID.TID 0000.0001)                 6.731088510587119E+09,      /* J = 37 */
(PID.TID 0000.0001)                 6.657284069968709E+09,      /* J = 38 */
(PID.TID 0000.0001)                 6.567441648916528E+09,      /* J = 39 */
(PID.TID 0000.0001)                 6.461777685692158E+09,      /* J = 40 */
(PID.TID 0000.0001)                 6.340546734038075E+09,      /* J = 41 */
(PID.TID 0000.0001)                 6.204040849935392E+09,      /* J = 42 */
(PID.TID 0000.0001)                 6.052588888015418E+09,      /* J = 43 */
(PID.TID 0000.0001)                 5.886555709320038E+09,      /* J = 44 */
(PID.TID 0000.0001)                 5.706341302319523E+09,      /* J = 45 */
(PID.TID 0000.0001)                 5.512379819305252E+09,      /* J = 46 */
(PID.TID 0000.0001)                 5.305138530478827E+09,      /* J = 47 */
(PID.TID 0000.0001)                 5.085116698257224E+09,      /* J = 48 */
(PID.TID 0000.0001)                 4.852844374505902E+09,      /* J = 49 */
(PID.TID 0000.0001)                 4.608881123597428E+09,      /* J = 50 */
(PID.TID 0000.0001)                 4.353814674371900E+09,      /* J = 51 */
(PID.TID 0000.0001)                 4.088259504246684E+09,      /* J = 52 */
(PID.TID 0000.0001)                 3.812855358886497E+09,      /* J = 53 */
(PID.TID 0000.0001)                 3.528265711000066E+09,      /* J = 54 */
(PID.TID 0000.0001)                 3.235176161976259E+09,      /* J = 55 */
(PID.TID 0000.0001)                 2.934292790210288E+09,      /* J = 56 */
(PID.TID 0000.0001)                 2.626340450099005E+09,      /* J = 57 */
(PID.TID 0000.0001)                 2.312061025803179E+09,      /* J = 58 */
(PID.TID 0000.0001)                 1.992211643983565E+09,      /* J = 59 */
(PID.TID 0000.0001)                 1.667562849816465E+09,      /* J = 60 */
(PID.TID 0000.0001)                 1.338896750682900E+09,      /* J = 61 */
(PID.TID 0000.0001)                 1.007005132003436E+09,      /* J = 62 */
(PID.TID 0000.0001)                 6.726875497577434E+08,      /* J = 63 */
(PID.TID 0000.0001)                 3.367494042842150E+08       /* J = 64 */
(PID.TID 0000.0001)     ;
(PID.TID 0000.0001) dyU =  /* dyU(:,1,:,1) ( m - cartesian, degrees - spherical ) */
(PID.TID 0000.0001)     2 @  3.126866438026091E+05              /* I =  1:  2 */
(PID.TID 0000.0001)     ;
(PID.TID 0000.0001) dyU =  /* dyU(1,:,1,:) ( m - cartesian, degrees - spherical ) */
(PID.TID 0000.0001)    64 @  3.126866438026091E+05              /* J =  1: 64 */
(PID.TID 0000.0001)     ;
(PID.TID 0000.0001) rA =  /* rA(:,1,:,1) ( m - cartesian, degrees - spherical ) */
(PID.TID 0000.0001)                 2.399227099019054E+09,      /* I =  1 */
(PID.TID 0000.0001)                 1.053157902917211E+14       /* I =  2 */
(PID.TID 0000.0001)     ;
(PID.TID 0000.0001) rA =  /* rA(1,:,1,:) ( m - cartesian, degrees - spherical ) */
(PID.TID 0000.0001)                 2.399227099019054E+09,      /* J =  1 */
(PID.TID 0000.0001)                 7.191901348828095E+09,      /* J =  2 */
(PID.TID 0000.0001)                 1.196724967835172E+10,      /* J =  3 */
(PID.TID 0000.0001)                 1.671376785519289E+10,      /* J =  4 */
(PID.TID 0000.0001)                 2.142002110131774E+10,      /* J =  5 */
(PID.TID 0000.0001)                 2.607467164043713E+10,      /* J =  6 */
(PID.TID 0000.0001)                 3.066650601170344E+10,      /* J =  7 */
(PID.TID 0000.0001)                 3.518446208391876E+10,      /* J =  8 */
(PID.TID 0000.0001)                 3.961765570517902E+10,      /* J =  9 */
(PID.TID 0000.0001)                 4.395540692374849E+10,      /* J = 10 */
(PID.TID 0000.0001)                 4.818726571700011E+10,      /* J = 11 */
(PID.TID 0000.0001)                 5.230303716643329E+10,      /* J = 12 */
(PID.TID 0000.0001)                 5.629280601812742E+10,      /* J = 13 */
(PID.TID 0000.0001)                 6.014696056945666E+10,      /* J = 14 */
(PID.TID 0000.0001)                 6.385621582452226E+10,      /* J = 15 */
(PID.TID 0000.0001)                 6.741163586252296E+10,      /* J = 16 */
(PID.TID 0000.0001)                 7.080465536516859E+10,      /* J = 17 */
(PID.TID 0000.0001)                 7.402710025128450E+10,      /* J = 18 */
(PID.TID 0000.0001)                 7.707120736888654E+10,      /* J = 19 */
(PID.TID 0000.0001)                 7.992964319729680E+10,      /* J = 20 */
(PID.TID 0000.0001)                 8.259552151423453E+10,      /* J = 21 */
(PID.TID 0000.0001)                 8.506241998533157E+10,      /* J = 22 */
(PID.TID 0000.0001)                 8.732439563609564E+10,      /* J = 23 */
(PID.TID 0000.0001)                 8.937599916905875E+10,      /* J = 24 */
(PID.TID 0000.0001)                 9.121228809161064E+10,      /* J = 25 */
(PID.TID 0000.0001)                 9.282883862289697E+10,      /* J = 26 */
(PID.TID 0000.0001)                 9.422175635109477E+10,      /* J = 27 */
(PID.TID 0000.0001)                 9.538768561539165E+10,      /* J = 28 */
(PID.TID 0000.0001)                 9.632381759006653E+10,      /* J = 29 */
(PID.TID 0000.0001)                 9.702789705119699E+10,      /* J = 30 */
(PID.TID 0000.0001)                 9.749822780969106E+10,      /* J = 31 */
(PID.TID 0000.0001)     2 @  9.773367679755542E+10,             /* J = 32: 33 */
(PID.TID 0000.0001)                 9.749822780969106E+10,      /* J = 34 */
(PID.TID 0000.0001)                 9.702789705119699E+10,      /* J = 35 */
(PID.TID 0000.0001)                 9.632381759006653E+10,      /* J = 36 */
(PID.TID 0000.0001)                 9.538768561539165E+10,      /* J = 37 */
(PID.TID 0000.0001)                 9.422175635109477E+10,      /* J = 38 */
(PID.TID 0000.0001)                 9.282883862289697E+10,      /* J = 39 */
(PID.TID 0000.0001)                 9.121228809161064E+10,      /* J = 40 */
(PID.TID 0000.0001)                 8.937599916905875E+10,      /* J = 41 */
(PID.TID 0000.0001)                 8.732439563609564E+10,      /* J = 42 */
(PID.TID 0000.0001)                 8.506241998533157E+10,      /* J = 43 */
(PID.TID 0000.0001)                 8.259552151423453E+10,      /* J = 44 */
(PID.TID 0000.0001)                 7.992964319729680E+10,      /* J = 45 */
(PID.TID 0000.0001)                 7.707120736888654E+10,      /* J = 46 */
(PID.TID 0000.0001)                 7.402710025128450E+10,      /* J = 47 */
(PID.TID 0000.0001)                 7.080465536516859E+10,      /* J = 48 */
(PID.TID 0000.0001)                 6.741163586252296E+10,      /* J = 49 */
(PID.TID 0000.0001)                 6.385621582452226E+10,      /* J = 50 */
(PID.TID 0000.0001)                 6.014696056945666E+10,      /* J = 51 */
(PID.TID 0000.0001)                 5.629280601812742E+10,      /* J = 52 */
(PID.TID 0000.0001)                 5.230303716643329E+10,      /* J = 53 */
(PID.TID 0000.0001)                 4.818726571700011E+10,      /* J = 54 */
(PID.TID 0000.0001)                 4.395540692374849E+10,      /* J = 55 */
(PID.TID 0000.0001)                 3.961765570517902E+10,      /* J = 56 */
(PID.TID 0000.0001)                 3.518446208391876E+10,      /* J = 57 */
(PID.TID 0000.0001)                 3.066650601170344E+10,      /* J = 58 */
(PID.TID 0000.0001)                 2.607467164043713E+10,      /* J = 59 */
(PID.TID 0000.0001)                 2.142002110131774E+10,      /* J = 60 */
(PID.TID 0000.0001)                 1.671376785519289E+10,      /* J = 61 */
(PID.TID 0000.0001)                 1.196724967835172E+10,      /* J = 62 */
(PID.TID 0000.0001)                 7.191901348828095E+09,      /* J = 63 */
(PID.TID 0000.0001)                 2.399227099019054E+09       /* J = 64 */
(PID.TID 0000.0001)     ;
(PID.TID 0000.0001) rAw =  /* rAw(:,1,:,1) ( m - cartesian, degrees - spherical ) */
(PID.TID 0000.0001)     2 @  5.265909475941006E+13              /* I =  1:  2 */
(PID.TID 0000.0001)     ;
(PID.TID 0000.0001) rAw =  /* rAw(1,:,1,:) ( m - cartesian, degrees - spherical ) */
(PID.TID 0000.0001)                 5.265909475941006E+13,      /* J =  1 */
(PID.TID 0000.0001)                 1.578504239065616E+14,      /* J =  2 */
(PID.TID 0000.0001)                 2.626614775564595E+14,      /* J =  3 */
(PID.TID 0000.0001)                 3.668397567004951E+14,      /* J =  4 */
(PID.TID 0000.0001)                 4.701342867392714E+14,      /* J =  5 */
(PID.TID 0000.0001)                 5.722962221023899E+14,      /* J =  6 */
(PID.TID 0000.0001)                 6.730794457392401E+14,      /* J =  7 */
(PID.TID 0000.0001)                 7.722411620365056E+14,      /* J =  8 */
(PID.TID 0000.0001)                 8.695424817340881E+14,      /* J =  9 */
(PID.TID 0000.0001)                 9.647489974302422E+14,      /* J = 10 */
(PID.TID 0000.0001)                 1.057631348289564E+15,      /* J = 11 */
(PID.TID 0000.0001)                 1.147965772593286E+15,      /* J = 12 */
(PID.TID 0000.0001)                 1.235534646800902E+15,      /* J = 13 */
(PID.TID 0000.0001)                 1.320127009824327E+15,      /* J = 14 */
(PID.TID 0000.0001)                 1.401539071251610E+15,      /* J = 15 */
(PID.TID 0000.0001)                 1.479574702295929E+15,      /* J = 16 */
(PID.TID 0000.0001)                 1.554045908286973E+15,      /* J = 17 */
(PID.TID 0000.0001)                 1.624773281566616E+15,      /* J = 18 */
(PID.TID 0000.0001)                 1.691586433697625E+15,      /* J = 19 */
(PID.TID 0000.0001)                 1.754324405944392E+15,      /* J = 20 */
(PID.TID 0000.0001)                 1.812836057036561E+15,      /* J = 21 */
(PID.TID 0000.0001)                 1.866980427281652E+15,      /* J = 22 */
(PID.TID 0000.0001)                 1.916627078149244E+15,      /* J = 23 */
(PID.TID 0000.0001)                 1.961656406508871E+15,      /* J = 24 */
(PID.TID 0000.0001)                 2.001959932764410E+15,      /* J = 25 */
(PID.TID 0000.0001)                 2.037440562190939E+15,      /* J = 26 */
(PID.TID 0000.0001)                 2.068012818844434E+15,      /* J = 27 */
(PID.TID 0000.0001)                 2.093603051480803E+15,      /* J = 28 */
(PID.TID 0000.0001)                 2.114149610988185E+15,      /* J = 29 */
(PID.TID 0000.0001)                 2.129602998905061E+15,      /* J = 30 */
(PID.TID 0000.0001)                 2.139925986666382E+15,      /* J = 31 */
(PID.TID 0000.0001)     2 @  2.145093705290445E+15,             /* J = 32: 33 */
(PID.TID 0000.0001)                 2.139925986666382E+15,      /* J = 34 */
(PID.TID 0000.0001)                 2.129602998905061E+15,      /* J = 35 */
(PID.TID 0000.0001)                 2.114149610988185E+15,      /* J = 36 */
(PID.TID 0000.0001)                 2.093603051480803E+15,      /* J = 37 */
(PID.TID 0000.0001)                 2.068012818844434E+15,      /* J = 38 */
(PID.TID 0000.0001)                 2.037440562190939E+15,      /* J = 39 */
(PID.TID 0000.0001)                 2.001959932764410E+15,      /* J = 40 */
(PID.TID 0000.0001)                 1.961656406508871E+15,      /* J = 41 */
(PID.TID 0000.0001)                 1.916627078149244E+15,      /* J = 42 */
(PID.TID 0000.0001)                 1.866980427281652E+15,      /* J = 43 */
(PID.TID 0000.0001)                 1.812836057036561E+15,      /* J = 44 */
(PID.TID 0000.0001)                 1.754324405944392E+15,      /* J = 45 */
(PID.TID 0000.0001)                 1.691586433697625E+15,      /* J = 46 */
(PID.TID 0000.0001)                 1.624773281566616E+15,      /* J = 47 */
(PID.TID 0000.0001)                 1.554045908286973E+15,      /* J = 48 */
(PID.TID 0000.0001)                 1.479574702295929E+15,      /* J = 49 */
(PID.TID 0000.0001)                 1.401539071251610E+15,      /* J = 50 */
(PID.TID 0000.0001)                 1.320127009824327E+15,      /* J = 51 */
(PID.TID 0000.0001)                 1.235534646800902E+15,      /* J = 52 */
(PID.TID 0000.0001)                 1.147965772593286E+15,      /* J = 53 */
(PID.TID 0000.0001)                 1.057631348289564E+15,      /* J = 54 */
(PID.TID 0000.0001)                 9.647489974302422E+14,      /* J = 55 */
(PID.TID 0000.0001)                 8.695424817340881E+14,      /* J = 56 */
(PID.TID 0000.0001)                 7.722411620365056E+14,      /* J = 57 */
(PID.TID 0000.0001)                 6.730794457392401E+14,      /* J = 58 */
(PID.TID 0000.0001)                 5.722962221023899E+14,      /* J = 59 */
(PID.TID 0000.0001)                 4.701342867392714E+14,      /* J = 60 */
(PID.TID 0000.0001)                 3.668397567004951E+14,      /* J = 61 */
(PID.TID 0000.0001)                 2.626614775564595E+14,      /* J = 62 */
(PID.TID 0000.0001)                 1.578504239065616E+14,      /* J = 63 */
(PID.TID 0000.0001)                 5.265909475941006E+13       /* J = 64 */
(PID.TID 0000.0001)     ;
(PID.TID 0000.0001) rAs =  /* rAs(:,1,:,1) ( m - cartesian, degrees - spherical ) */
(PID.TID 0000.0001)     2 @  0.000000000000000E+00              /* I =  1:  2 */
(PID.TID 0000.0001)     ;
(PID.TID 0000.0001) rAs =  /* rAs(1,:,1,:) ( m - cartesian, degrees - spherical ) */
(PID.TID 0000.0001)                 0.000000000000000E+00,      /* J =  1 */
(PID.TID 0000.0001)                 4.797008993346521E+09,      /* J =  2 */
(PID.TID 0000.0001)                 9.582461571859713E+09,      /* J =  3 */
(PID.TID 0000.0001)                 1.434482916112171E+10,      /* J =  4 */
(PID.TID 0000.0001)                 1.907263880047606E+10,      /* J =  5 */
(PID.TID 0000.0001)                 2.375450078239415E+10,      /* J =  6 */
(PID.TID 0000.0001)                 2.837913609127892E+10,      /* J =  7 */
(PID.TID 0000.0001)                 3.293540357560105E+10,      /* J =  8 */
(PID.TID 0000.0001)                 3.741232678790874E+10,      /* J =  9 */
(PID.TID 0000.0001)                 4.179912042805189E+10,      /* J = 10 */
(PID.TID 0000.0001)                 4.608521632591315E+10,      /* J = 11 */
(PID.TID 0000.0001)                 5.026028890105708E+10,      /* J = 12 */
(PID.TID 0000.0001)                 5.431428003795686E+10,      /* J = 13 */
(PID.TID 0000.0001)                 5.823742331687625E+10,      /* J = 14 */
(PID.TID 0000.0001)                 6.202026754202961E+10,      /* J = 15 */
(PID.TID 0000.0001)                 6.565369951034008E+10,      /* J = 16 */
(PID.TID 0000.0001)                 6.912896596594554E+10,      /* J = 17 */
(PID.TID 0000.0001)                 7.243769468755643E+10,      /* J = 18 */
(PID.TID 0000.0001)                 7.557191465787260E+10,      /* J = 19 */
(PID.TID 0000.0001)                 7.852407526645969E+10,      /* J = 20 */
(PID.TID 0000.0001)                 8.128706449983356E+10,      /* J = 21 */
(PID.TID 0000.0001)                 8.385422607492099E+10,      /* J = 22 */
(PID.TID 0000.0001)                 8.621937547463147E+10,      /* J = 23 */
(PID.TID 0000.0001)                 8.837681484689810E+10,      /* J = 24 */
(PID.TID 0000.0001)                 9.032134673130382E+10,      /* J = 25 */
(PID.TID 0000.0001)                 9.204828658021820E+10,      /* J = 26 */
(PID.TID 0000.0001)                 9.355347404428316E+10,      /* J = 27 */
(PID.TID 0000.0001)                 9.483328299505894E+10,      /* J = 28 */
(PID.TID 0000.0001)                 9.588463026068498E+10,      /* J = 29 */
(PID.TID 0000.0001)                 9.670498305351137E+10,      /* J = 30 */
(PID.TID 0000.0001)                 9.729236507180573E+10,      /* J = 31 */
(PID.TID 0000.0001)                 9.764536126083739E+10,      /* J = 32 */
(PID.TID 0000.0001)                 9.776312122186816E+10,      /* J = 33 */
(PID.TID 0000.0001)                 9.764536126083739E+10,      /* J = 34 */
(PID.TID 0000.0001)                 9.729236507180573E+10,      /* J = 35 */
(PID.TID 0000.0001)                 9.670498305351137E+10,      /* J = 36 */
(PID.TID 0000.0001)                 9.588463026068498E+10,      /* J = 37 */
(PID.TID 0000.0001)                 9.483328299505894E+10,      /* J = 38 */
(PID.TID 0000.0001)                 9.355347404428316E+10,      /* J = 39 */
(PID.TID 0000.0001)                 9.204828658021820E+10,      /* J = 40 */
(PID.TID 0000.0001)                 9.032134673130382E+10,      /* J = 41 */
(PID.TID 0000.0001)                 8.837681484689810E+10,      /* J = 42 */
(PID.TID 0000.0001)                 8.621937547463147E+10,      /* J = 43 */
(PID.TID 0000.0001)                 8.385422607492099E+10,      /* J = 44 */
(PID.TID 0000.0001)                 8.128706449983356E+10,      /* J = 45 */
(PID.TID 0000.0001)                 7.852407526645969E+10,      /* J = 46 */
(PID.TID 0000.0001)                 7.557191465787260E+10,      /* J = 47 */
(PID.TID 0000.0001)                 7.243769468755643E+10,      /* J = 48 */
(PID.TID 0000.0001)                 6.912896596594554E+10,      /* J = 49 */
(PID.TID 0000.0001)                 6.565369951034008E+10,      /* J = 50 */
(PID.TID 0000.0001)                 6.202026754202961E+10,      /* J = 51 */
(PID.TID 0000.0001)                 5.823742331687625E+10,      /* J = 52 */
(PID.TID 0000.0001)                 5.431428003795686E+10,      /* J = 53 */
(PID.TID 0000.0001)                 5.026028890105708E+10,      /* J = 54 */
(PID.TID 0000.0001)                 4.608521632591315E+10,      /* J = 55 */
(PID.TID 0000.0001)                 4.179912042805189E+10,      /* J = 56 */
(PID.TID 0000.0001)                 3.741232678790874E+10,      /* J = 57 */
(PID.TID 0000.0001)                 3.293540357560105E+10,      /* J = 58 */
(PID.TID 0000.0001)                 2.837913609127892E+10,      /* J = 59 */
(PID.TID 0000.0001)                 2.375450078239415E+10,      /* J = 60 */
(PID.TID 0000.0001)                 1.907263880047606E+10,      /* J = 61 */
(PID.TID 0000.0001)                 1.434482916112171E+10,      /* J = 62 */
(PID.TID 0000.0001)                 9.582461571859713E+09,      /* J = 63 */
(PID.TID 0000.0001)                 4.797008993346521E+09       /* J = 64 */
(PID.TID 0000.0001)     ;
(PID.TID 0000.0001) 
 ph-pack: unpacking ecco_ctrl
(PID.TID 0000.0001)  MDSREADFIELD_GL: opening file: hFacC.001.001.data
(PID.TID 0000.0001)  MDSREADFIELD_GL: opening file: xx_theta.0000000000.001.001.data
(PID.TID 0000.0001)  MDSREADFIELD_GL: opening file: hFacC.001.001.data
(PID.TID 0000.0001)  MDSREADFIELD_GL: opening file: xx_salt.0000000000.001.001.data
(PID.TID 0000.0001)  MDSREADFIELD_GL: opening file: hFacC.001.001.data
(PID.TID 0000.0001)  MDSREADFIELD_GL: opening file: xx_diffkr.0000000000.001.001.data
(PID.TID 0000.0001)  MDSREADFIELD_GL: opening file: hFacC.001.001.data
(PID.TID 0000.0001)  MDSREADFIELD_GL: opening file: xx_tr1.0000000000.001.001.data
(PID.TID 0000.0001) %MON fCori_max                    =   1.4540029928789E-04
(PID.TID 0000.0001) %MON fCori_min                    =  -1.4540029928789E-04
(PID.TID 0000.0001) %MON fCori_mean                   =   0.0000000000000E+00
(PID.TID 0000.0001) %MON fCori_sd                     =   1.0284451245737E-04
(PID.TID 0000.0001) %MON fCoriG_max                   =   1.4526891053949E-04
(PID.TID 0000.0001) %MON fCoriG_min                   =  -1.4544410433286E-04
(PID.TID 0000.0001) %MON fCoriG_mean                  =  -2.3086365767121E-06
(PID.TID 0000.0001) %MON fCoriG_sd                    =   1.0363181330709E-04
(PID.TID 0000.0001) %MON fCoriCos_max                 =   1.4540029928789E-04
(PID.TID 0000.0001) %MON fCoriCos_min                 =   3.5693770017430E-06
(PID.TID 0000.0001) %MON fCoriCos_mean                =   9.2601889431869E-05
(PID.TID 0000.0001) %MON fCoriCos_sd                  =   4.4742416298653E-05
(PID.TID 0000.0001) // CG2D normalisation factor =          0.2278126663032464164969763E-09
(PID.TID 0000.0001) 
(PID.TID 0000.0001) // =======================================================
(PID.TID 0000.0001) // Field Initial Temperature at iteration          1
(PID.TID 0000.0001) // CMIN =          2.550364452389422E+02
(PID.TID 0000.0001) // CMAX =          3.154764877049333E+02
(PID.TID 0000.0001) // CINT =          2.238520091333006E+00
(PID.TID 0000.0001) // SYMBOLS (CMIN->CMAX): -abcdefghijklmnopqrstuvwxyz+
(PID.TID 0000.0001) //                  0.0: .
(PID.TID 0000.0001) // RANGE I (Lo:Hi:Step):(   1:   2:   1)
(PID.TID 0000.0001) // RANGE J (Lo:Hi:Step):(  64:   1:  -1)
(PID.TID 0000.0001) // RANGE K (Lo:Hi:Step):(   1:   1:   1)
(PID.TID 0000.0001) // =======================================================
(PID.TID 0000.0001) K =   1
(PID.TID 0000.0001) 
(PID.TID 0000.0001) |--J--|12
(PID.TID 0000.0001)     64 --
(PID.TID 0000.0001)     63 --
(PID.TID 0000.0001)     62 --
(PID.TID 0000.0001)     61 aa
(PID.TID 0000.0001)     60 aa
(PID.TID 0000.0001)     59 bb
(PID.TID 0000.0001)     58 cc
(PID.TID 0000.0001)     57 cc
(PID.TID 0000.0001)     56 dd
(PID.TID 0000.0001)     55 ee
(PID.TID 0000.0001)     54 gg
(PID.TID 0000.0001)     53 hh
(PID.TID 0000.0001)     52 ii
(PID.TID 0000.0001)     51 jj
(PID.TID 0000.0001)     50 ll
(PID.TID 0000.0001)     49 mm
(PID.TID 0000.0001)     48 nn
(PID.TID 0000.0001)     47 oo
(PID.TID 0000.0001)     46 qq
(PID.TID 0000.0001)     45 rr
(PID.TID 0000.0001)     44 ss
(PID.TID 0000.0001)     43 tt
(PID.TID 0000.0001)     42 vv
(PID.TID 0000.0001)     41 ww
(PID.TID 0000.0001)     40 xx
(PID.TID 0000.0001)     39 xx
(PID.TID 0000.0001)     38 yy
(PID.TID 0000.0001)     37 zz
(PID.TID 0000.0001)     36 zz
(PID.TID 0000.0001)     35 ++
(PID.TID 0000.0001)     34 ++
(PID.TID 0000.0001)     33 ++
(PID.TID 0000.0001)     32 ++
(PID.TID 0000.0001)     31 ++
(PID.TID 0000.0001)     30 ++
(PID.TID 0000.0001)     29 zz
(PID.TID 0000.0001)     28 zz
(PID.TID 0000.0001)     27 yy
(PID.TID 0000.0001)     26 xx
(PID.TID 0000.0001)     25 xx
(PID.TID 0000.0001)     24 ww
(PID.TID 0000.0001)     23 vv
(PID.TID 0000.0001)     22 tt
(PID.TID 0000.0001)     21 ss
(PID.TID 0000.0001)     20 rr
(PID.TID 0000.0001)     19 qq
(PID.TID 0000.0001)     18 oo
(PID.TID 0000.0001)     17 nn
(PID.TID 0000.0001)     16 mm
(PID.TID 0000.0001)     15 ll
(PID.TID 0000.0001)     14 jj
(PID.TID 0000.0001)     13 ii
(PID.TID 0000.0001)     12 hh
(PID.TID 0000.0001)     11 gg
(PID.TID 0000.0001)     10 ee
(PID.TID 0000.0001)      9 dd
(PID.TID 0000.0001)      8 cc
(PID.TID 0000.0001)      7 cc
(PID.TID 0000.0001)      6 bb
(PID.TID 0000.0001)      5 aa
(PID.TID 0000.0001)      4 aa
(PID.TID 0000.0001)      3 --
(PID.TID 0000.0001)      2 --
(PID.TID 0000.0001)      1 --
(PID.TID 0000.0001) // =======================================================
(PID.TID 0000.0001) // END OF FIELD                                          =
(PID.TID 0000.0001) // =======================================================
(PID.TID 0000.0001) 
(PID.TID 0000.0001) // =======================================================
(PID.TID 0000.0001) // Field Initial Salinity at iteration          1
(PID.TID 0000.0001) // CMIN =          1.000000000000000E+32
(PID.TID 0000.0001) // CMAX =         -1.000000000000000E+32
(PID.TID 0000.0001) // CINT =          0.000000000000000E+00
(PID.TID 0000.0001) // SYMBOLS (CMIN->CMAX): -abcdefghijklmnopqrstuvwxyz+
(PID.TID 0000.0001) //                  0.0: .
(PID.TID 0000.0001) // RANGE I (Lo:Hi:Step):(   1:   2:   1)
(PID.TID 0000.0001) // RANGE J (Lo:Hi:Step):(  64:   1:  -1)
(PID.TID 0000.0001) // RANGE K (Lo:Hi:Step):(   1:   1:   1)
(PID.TID 0000.0001) // =======================================================
(PID.TID 0000.0001) // =======================================================
(PID.TID 0000.0001) // END OF FIELD                                          =
(PID.TID 0000.0001) // =======================================================
(PID.TID 0000.0001) 
(PID.TID 0000.0001) Start initial hydrostatic pressure computation
(PID.TID 0000.0001) Pressure is predetermined for buoyancyRelation ATMOSPHERIC
(PID.TID 0000.0001) 
(PID.TID 0000.0001)  MDSREADFIELD: opening file: xx_theta.0000000000.001.001.data
(PID.TID 0000.0001)  MDSREADFIELD: opening file: g_xx_theta.0000000000.001.001.data
(PID.TID 0000.0001)  MDSREADFIELD: opening file: xx_salt.0000000000.001.001.data
(PID.TID 0000.0001)  MDSREADFIELD: opening file: g_xx_salt.0000000000.001.001.data
(PID.TID 0000.0001)  MDSREADFIELD: opening file: xx_diffkr.0000000000.001.001.data
(PID.TID 0000.0001)  MDSREADFIELD: opening file: g_xx_diffkr.0000000000.001.001.data
(PID.TID 0000.0001) // =======================================================
(PID.TID 0000.0001) // Model current state
(PID.TID 0000.0001) // =======================================================
(PID.TID 0000.0001) 
 cg2d: Sum(rhs),rhsMax =   0.00000000000000E+00  0.00000000000000E+00
 cg2d: Sum(rhs),rhsMax =  -2.08166817117217E-15  8.97359314695382E+01
 cg2d: Sum(rhs),rhsMax =   0.00000000000000E+00  0.00000000000000E+00
 cg2d: Sum(rhs),rhsMax =   2.56739074444567E-16  1.89073450912132E+02
 cg2d: Sum(rhs),rhsMax =   0.00000000000000E+00  0.00000000000000E+00
 cg2d: Sum(rhs),rhsMax =   2.22044604925031E-15  3.69983935898362E+02
 cg2d: Sum(rhs),rhsMax =   0.00000000000000E+00  0.00000000000000E+00
 cg2d: Sum(rhs),rhsMax =   1.99146255042137E-15  6.00188020663841E+02
 cg2d: Sum(rhs),rhsMax =   0.00000000000000E+00  0.00000000000000E+00
 cg2d: Sum(rhs),rhsMax =   3.64985819345520E-15  8.71578060598605E+02
 cg2d: Sum(rhs),rhsMax =   0.00000000000000E+00  0.00000000000000E+00
 cg2d: Sum(rhs),rhsMax =   9.29811783123569E-16  1.17463757356037E+03
 cg2d: Sum(rhs),rhsMax =   0.00000000000000E+00  0.00000000000000E+00
 cg2d: Sum(rhs),rhsMax =   1.86656246015104E-15  1.49858166121228E+03
 cg2d: Sum(rhs),rhsMax =   0.00000000000000E+00  0.00000000000000E+00
 cg2d: Sum(rhs),rhsMax =   2.18575157973078E-15  1.83164888966199E+03
 cg2d: Sum(rhs),rhsMax =   0.00000000000000E+00  0.00000000000000E+00
 cg2d: Sum(rhs),rhsMax =   2.62290189567693E-15  2.16161545389010E+03
 cg2d: Sum(rhs),rhsMax =   0.00000000000000E+00  0.00000000000000E+00
 cg2d: Sum(rhs),rhsMax =   3.72618602639818E-15  2.47650463597214E+03
 ph-pack: unpacking ecco_cost
(PID.TID 0000.0001)  MDSREADFIELD_GL: opening file: hFacC.001.001.data
(PID.TID 0000.0001)  MDSREADFIELD_GL: opening file: g_xx_theta.0000000000.001.001.data
(PID.TID 0000.0001)  MDSREADFIELD_GL: opening file: hFacC.001.001.data
(PID.TID 0000.0001)  MDSREADFIELD_GL: opening file: g_xx_salt.0000000000.001.001.data
(PID.TID 0000.0001)  MDSREADFIELD_GL: opening file: hFacC.001.001.data
(PID.TID 0000.0001)  MDSREADFIELD_GL: opening file: g_xx_diffkr.0000000000.001.001.data
(PID.TID 0000.0001)  MDSREADFIELD_GL: opening file: hFacC.001.001.data
(PID.TID 0000.0001)  MDSREADFIELD_GL: opening file: g_xx_tr1.0000000000.001.001.data
 ph-check fcref =   626.587786
 grad-res -------------------------------
 grad-res  proc    #    i    j    k            fc ref        fc + eps        fc - eps
 grad-res  proc    #    i    j    k          tlm grad         fd grad      1 - fd/tlm
(PID.TID 0000.0001)  MDSREADFIELD: opening file: g_xx_theta.0000000000.001.001.data
(PID.TID 0000.0001)  MDSREADFIELD: opening file: g_xx_theta.0000000000.001.001.data
(PID.TID 0000.0001) %MON fCori_max                    =   1.4540029928789E-04
(PID.TID 0000.0001) %MON fCori_min                    =  -1.4540029928789E-04
(PID.TID 0000.0001) %MON fCori_mean                   =   0.0000000000000E+00
(PID.TID 0000.0001) %MON fCori_sd                     =   1.0284451245737E-04
(PID.TID 0000.0001) %MON fCoriG_max                   =   1.4526891053949E-04
(PID.TID 0000.0001) %MON fCoriG_min                   =  -1.4544410433286E-04
(PID.TID 0000.0001) %MON fCoriG_mean                  =  -2.3086365767121E-06
(PID.TID 0000.0001) %MON fCoriG_sd                    =   1.0363181330709E-04
(PID.TID 0000.0001) %MON fCoriCos_max                 =   1.4540029928789E-04
(PID.TID 0000.0001) %MON fCoriCos_min                 =   3.5693770017430E-06
(PID.TID 0000.0001) %MON fCoriCos_mean                =   9.2601889431869E-05
(PID.TID 0000.0001) %MON fCoriCos_sd                  =   4.4742416298653E-05
(PID.TID 0000.0001) // CG2D normalisation factor =          0.2278126663032464164969763E-09
(PID.TID 0000.0001) 
(PID.TID 0000.0001) // =======================================================
(PID.TID 0000.0001) // Field Initial Temperature at iteration          1
(PID.TID 0000.0001) // CMIN =          2.550364452389422E+02
(PID.TID 0000.0001) // CMAX =          3.154764877049333E+02
(PID.TID 0000.0001) // CINT =          2.238520091333006E+00
(PID.TID 0000.0001) // SYMBOLS (CMIN->CMAX): -abcdefghijklmnopqrstuvwxyz+
(PID.TID 0000.0001) //                  0.0: .
(PID.TID 0000.0001) // RANGE I (Lo:Hi:Step):(   1:   2:   1)
(PID.TID 0000.0001) // RANGE J (Lo:Hi:Step):(  64:   1:  -1)
(PID.TID 0000.0001) // RANGE K (Lo:Hi:Step):(   1:   1:   1)
(PID.TID 0000.0001) // =======================================================
(PID.TID 0000.0001) K =   1
(PID.TID 0000.0001) 
(PID.TID 0000.0001) |--J--|12
(PID.TID 0000.0001)     64 --
(PID.TID 0000.0001)     63 --
(PID.TID 0000.0001)     62 --
(PID.TID 0000.0001)     61 aa
(PID.TID 0000.0001)     60 aa
(PID.TID 0000.0001)     59 bb
(PID.TID 0000.0001)     58 cc
(PID.TID 0000.0001)     57 cc
(PID.TID 0000.0001)     56 dd
(PID.TID 0000.0001)     55 ee
(PID.TID 0000.0001)     54 gg
(PID.TID 0000.0001)     53 hh
(PID.TID 0000.0001)     52 ii
(PID.TID 0000.0001)     51 jj
(PID.TID 0000.0001)     50 ll
(PID.TID 0000.0001)     49 mm
(PID.TID 0000.0001)     48 nn
(PID.TID 0000.0001)     47 oo
(PID.TID 0000.0001)     46 qq
(PID.TID 0000.0001)     45 rr
(PID.TID 0000.0001)     44 ss
(PID.TID 0000.0001)     43 tt
(PID.TID 0000.0001)     42 vv
(PID.TID 0000.0001)     41 ww
(PID.TID 0000.0001)     40 xx
(PID.TID 0000.0001)     39 xx
(PID.TID 0000.0001)     38 yy
(PID.TID 0000.0001)     37 zz
(PID.TID 0000.0001)     36 zz
(PID.TID 0000.0001)     35 ++
(PID.TID 0000.0001)     34 ++
(PID.TID 0000.0001)     33 ++
(PID.TID 0000.0001)     32 ++
(PID.TID 0000.0001)     31 ++
(PID.TID 0000.0001)     30 ++
(PID.TID 0000.0001)     29 zz
(PID.TID 0000.0001)     28 zz
(PID.TID 0000.0001)     27 yy
(PID.TID 0000.0001)     26 xx
(PID.TID 0000.0001)     25 xx
(PID.TID 0000.0001)     24 ww
(PID.TID 0000.0001)     23 vv
(PID.TID 0000.0001)     22 tt
(PID.TID 0000.0001)     21 ss
(PID.TID 0000.0001)     20 rr
(PID.TID 0000.0001)     19 qq
(PID.TID 0000.0001)     18 oo
(PID.TID 0000.0001)     17 nn
(PID.TID 0000.0001)     16 mm
(PID.TID 0000.0001)     15 ll
(PID.TID 0000.0001)     14 jj
(PID.TID 0000.0001)     13 ii
(PID.TID 0000.0001)     12 hh
(PID.TID 0000.0001)     11 gg
(PID.TID 0000.0001)     10 ee
(PID.TID 0000.0001)      9 dd
(PID.TID 0000.0001)      8 cc
(PID.TID 0000.0001)      7 cc
(PID.TID 0000.0001)      6 bb
(PID.TID 0000.0001)      5 aa
(PID.TID 0000.0001)      4 aa
(PID.TID 0000.0001)      3 --
(PID.TID 0000.0001)      2 --
(PID.TID 0000.0001)      1 --
(PID.TID 0000.0001) // =======================================================
(PID.TID 0000.0001) // END OF FIELD                                          =
(PID.TID 0000.0001) // =======================================================
(PID.TID 0000.0001) 
(PID.TID 0000.0001) // =======================================================
(PID.TID 0000.0001) // Field Initial Salinity at iteration          1
(PID.TID 0000.0001) // CMIN =          1.000000000000000E+32
(PID.TID 0000.0001) // CMAX =         -1.000000000000000E+32
(PID.TID 0000.0001) // CINT =          0.000000000000000E+00
(PID.TID 0000.0001) // SYMBOLS (CMIN->CMAX): -abcdefghijklmnopqrstuvwxyz+
(PID.TID 0000.0001) //                  0.0: .
(PID.TID 0000.0001) // RANGE I (Lo:Hi:Step):(   1:   2:   1)
(PID.TID 0000.0001) // RANGE J (Lo:Hi:Step):(  64:   1:  -1)
(PID.TID 0000.0001) // RANGE K (Lo:Hi:Step):(   1:   1:   1)
(PID.TID 0000.0001) // =======================================================
(PID.TID 0000.0001) // =======================================================
(PID.TID 0000.0001) // END OF FIELD                                          =
(PID.TID 0000.0001) // =======================================================
(PID.TID 0000.0001) 
(PID.TID 0000.0001) Start initial hydrostatic pressure computation
(PID.TID 0000.0001) Pressure is predetermined for buoyancyRelation ATMOSPHERIC
(PID.TID 0000.0001) 
(PID.TID 0000.0001)  MDSREADFIELD: opening file: xx_theta.0000000000.001.001.data
(PID.TID 0000.0001)  MDSREADFIELD: opening file: g_xx_theta.0000000000.001.001.data
(PID.TID 0000.0001)  MDSREADFIELD: opening file: xx_salt.0000000000.001.001.data
(PID.TID 0000.0001)  MDSREADFIELD: opening file: g_xx_salt.0000000000.001.001.data
(PID.TID 0000.0001)  MDSREADFIELD: opening file: xx_diffkr.0000000000.001.001.data
(PID.TID 0000.0001)  MDSREADFIELD: opening file: g_xx_diffkr.0000000000.001.001.data
(PID.TID 0000.0001) // =======================================================
(PID.TID 0000.0001) // Model current state
(PID.TID 0000.0001) // =======================================================
(PID.TID 0000.0001) 
 cg2d: Sum(rhs),rhsMax =  -2.49800180540660E-16  8.15571950272472E-01
 cg2d: Sum(rhs),rhsMax =  -2.08166817117217E-15  8.97359314695382E+01
 cg2d: Sum(rhs),rhsMax =  -4.07543752150161E-14  1.16454862818531E+00
 cg2d: Sum(rhs),rhsMax =   2.56739074444567E-16  1.89073450912132E+02
 cg2d: Sum(rhs),rhsMax =  -7.45321701307243E-14  1.14746304099582E+00
 cg2d: Sum(rhs),rhsMax =   2.22044604925031E-15  3.69983935898362E+02
 cg2d: Sum(rhs),rhsMax =  -1.91032399437086E-13  1.00227605982733E+00
 cg2d: Sum(rhs),rhsMax =   1.99146255042137E-15  6.00188020663841E+02
 cg2d: Sum(rhs),rhsMax =  -2.79500730733792E-13  9.02213597486645E-01
 cg2d: Sum(rhs),rhsMax =   3.64985819345520E-15  8.71578060598605E+02
 cg2d: Sum(rhs),rhsMax =  -3.49301702898327E-13  8.40060701017004E-01
 cg2d: Sum(rhs),rhsMax =   9.29811783123569E-16  1.17463757356037E+03
 cg2d: Sum(rhs),rhsMax =  -3.98272533795852E-13  7.82543679710125E-01
 cg2d: Sum(rhs),rhsMax =   1.86656246015104E-15  1.49858166121228E+03
 cg2d: Sum(rhs),rhsMax =  -4.18211150300051E-13  7.18834943880610E-01
 cg2d: Sum(rhs),rhsMax =   2.18575157973078E-15  1.83164888966199E+03
 cg2d: Sum(rhs),rhsMax =  -4.17158934996486E-13  6.52621416724301E-01
 cg2d: Sum(rhs),rhsMax =   2.62290189567693E-15  2.16161545389010E+03
 cg2d: Sum(rhs),rhsMax =  -4.37209202858576E-13  5.89647655386448E-01
 cg2d: Sum(rhs),rhsMax =   3.72618602639818E-15  2.47650463597214E+03
(PID.TID 0000.0001)  MDSREADFIELD: opening file: g_xx_theta.0000000000.001.001.data
(PID.TID 0000.0001)  MDSREADFIELD: opening file: xx_theta.0000000000.001.001.data
(PID.TID 0000.0001) %MON fCori_max                    =   1.4540029928789E-04
(PID.TID 0000.0001) %MON fCori_min                    =  -1.4540029928789E-04
(PID.TID 0000.0001) %MON fCori_mean                   =   0.0000000000000E+00
(PID.TID 0000.0001) %MON fCori_sd                     =   1.0284451245737E-04
(PID.TID 0000.0001) %MON fCoriG_max                   =   1.4526891053949E-04
(PID.TID 0000.0001) %MON fCoriG_min                   =  -1.4544410433286E-04
(PID.TID 0000.0001) %MON fCoriG_mean                  =  -2.3086365767121E-06
(PID.TID 0000.0001) %MON fCoriG_sd                    =   1.0363181330709E-04
(PID.TID 0000.0001) %MON fCoriCos_max                 =   1.4540029928789E-04
(PID.TID 0000.0001) %MON fCoriCos_min                 =   3.5693770017430E-06
(PID.TID 0000.0001) %MON fCoriCos_mean                =   9.2601889431869E-05
(PID.TID 0000.0001) %MON fCoriCos_sd                  =   4.4742416298653E-05
(PID.TID 0000.0001) // CG2D normalisation factor =          0.2278126663032464164969763E-09
(PID.TID 0000.0001) 
(PID.TID 0000.0001) // =======================================================
(PID.TID 0000.0001) // Field Initial Temperature at iteration          1
(PID.TID 0000.0001) // CMIN =          2.550364452389422E+02
(PID.TID 0000.0001) // CMAX =          3.154764877049333E+02
(PID.TID 0000.0001) // CINT =          2.238520091333006E+00
(PID.TID 0000.0001) // SYMBOLS (CMIN->CMAX): -abcdefghijklmnopqrstuvwxyz+
(PID.TID 0000.0001) //                  0.0: .
(PID.TID 0000.0001) // RANGE I (Lo:Hi:Step):(   1:   2:   1)
(PID.TID 0000.0001) // RANGE J (Lo:Hi:Step):(  64:   1:  -1)
(PID.TID 0000.0001) // RANGE K (Lo:Hi:Step):(   1:   1:   1)
(PID.TID 0000.0001) // =======================================================
(PID.TID 0000.0001) K =   1
(PID.TID 0000.0001) 
(PID.TID 0000.0001) |--J--|12
(PID.TID 0000.0001)     64 --
(PID.TID 0000.0001)     63 --
(PID.TID 0000.0001)     62 --
(PID.TID 0000.0001)     61 aa
(PID.TID 0000.0001)     60 aa
(PID.TID 0000.0001)     59 bb
(PID.TID 0000.0001)     58 cc
(PID.TID 0000.0001)     57 cc
(PID.TID 0000.0001)     56 dd
(PID.TID 0000.0001)     55 ee
(PID.TID 0000.0001)     54 gg
(PID.TID 0000.0001)     53 hh
(PID.TID 0000.0001)     52 ii
(PID.TID 0000.0001)     51 jj
(PID.TID 0000.0001)     50 ll
(PID.TID 0000.0001)     49 mm
(PID.TID 0000.0001)     48 nn
(PID.TID 0000.0001)     47 oo
(PID.TID 0000.0001)     46 qq
(PID.TID 0000.0001)     45 rr
(PID.TID 0000.0001)     44 ss
(PID.TID 0000.0001)     43 tt
(PID.TID 0000.0001)     42 vv
(PID.TID 0000.0001)     41 ww
(PID.TID 0000.0001)     40 xx
(PID.TID 0000.0001)     39 xx
(PID.TID 0000.0001)     38 yy
(PID.TID 0000.0001)     37 zz
(PID.TID 0000.0001)     36 zz
(PID.TID 0000.0001)     35 ++
(PID.TID 0000.0001)     34 ++
(PID.TID 0000.0001)     33 ++
(PID.TID 0000.0001)     32 ++
(PID.TID 0000.0001)     31 ++
(PID.TID 0000.0001)     30 ++
(PID.TID 0000.0001)     29 zz
(PID.TID 0000.0001)     28 zz
(PID.TID 0000.0001)     27 yy
(PID.TID 0000.0001)     26 xx
(PID.TID 0000.0001)     25 xx
(PID.TID 0000.0001)     24 ww
(PID.TID 0000.0001)     23 vv
(PID.TID 0000.0001)     22 tt
(PID.TID 0000.0001)     21 ss
(PID.TID 0000.0001)     20 rr
(PID.TID 0000.0001)     19 qq
(PID.TID 0000.0001)     18 oo
(PID.TID 0000.0001)     17 nn
(PID.TID 0000.0001)     16 mm
(PID.TID 0000.0001)     15 ll
(PID.TID 0000.0001)     14 jj
(PID.TID 0000.0001)     13 ii
(PID.TID 0000.0001)     12 hh
(PID.TID 0000.0001)     11 gg
(PID.TID 0000.0001)     10 ee
(PID.TID 0000.0001)      9 dd
(PID.TID 0000.0001)      8 cc
(PID.TID 0000.0001)      7 cc
(PID.TID 0000.0001)      6 bb
(PID.TID 0000.0001)      5 aa
(PID.TID 0000.0001)      4 aa
(PID.TID 0000.0001)      3 --
(PID.TID 0000.0001)      2 --
(PID.TID 0000.0001)      1 --
(PID.TID 0000.0001) // =======================================================
(PID.TID 0000.0001) // END OF FIELD                                          =
(PID.TID 0000.0001) // =======================================================
(PID.TID 0000.0001) 
(PID.TID 0000.0001) // =======================================================
(PID.TID 0000.0001) // Field Initial Salinity at iteration          1
(PID.TID 0000.0001) // CMIN =          1.000000000000000E+32
(PID.TID 0000.0001) // CMAX =         -1.000000000000000E+32
(PID.TID 0000.0001) // CINT =          0.000000000000000E+00
(PID.TID 0000.0001) // SYMBOLS (CMIN->CMAX): -abcdefghijklmnopqrstuvwxyz+
(PID.TID 0000.0001) //                  0.0: .
(PID.TID 0000.0001) // RANGE I (Lo:Hi:Step):(   1:   2:   1)
(PID.TID 0000.0001) // RANGE J (Lo:Hi:Step):(  64:   1:  -1)
(PID.TID 0000.0001) // RANGE K (Lo:Hi:Step):(   1:   1:   1)
(PID.TID 0000.0001) // =======================================================
(PID.TID 0000.0001) // =======================================================
(PID.TID 0000.0001) // END OF FIELD                                          =
(PID.TID 0000.0001) // =======================================================
(PID.TID 0000.0001) 
(PID.TID 0000.0001) Start initial hydrostatic pressure computation
(PID.TID 0000.0001) Pressure is predetermined for buoyancyRelation ATMOSPHERIC
(PID.TID 0000.0001) 
(PID.TID 0000.0001)  MDSREADFIELD: opening file: xx_theta.0000000000.001.001.data
(PID.TID 0000.0001)  MDSREADFIELD: opening file: xx_salt.0000000000.001.001.data
(PID.TID 0000.0001)  MDSREADFIELD: opening file: xx_diffkr.0000000000.001.001.data
(PID.TID 0000.0001) // =======================================================
(PID.TID 0000.0001) // Model current state
(PID.TID 0000.0001) // =======================================================
(PID.TID 0000.0001) 
(PID.TID 0000.0001) // =======================================================
(PID.TID 0000.0001) // Begin MONITOR dynamic field statistics
(PID.TID 0000.0001) // =======================================================
(PID.TID 0000.0001) %MON time_tsnumber                =                     0
(PID.TID 0000.0001) %MON time_secondsf                =   0.0000000000000E+00
(PID.TID 0000.0001) %MON dynstat_eta_max              =   0.0000000000000E+00
(PID.TID 0000.0001) %MON dynstat_eta_min              =   0.0000000000000E+00
(PID.TID 0000.0001) %MON dynstat_eta_mean             =   0.0000000000000E+00
(PID.TID 0000.0001) %MON dynstat_eta_sd               =   0.0000000000000E+00
(PID.TID 0000.0001) %MON dynstat_eta_del2             =   0.0000000000000E+00
(PID.TID 0000.0001) %MON dynstat_uvel_max             =   0.0000000000000E+00
(PID.TID 0000.0001) %MON dynstat_uvel_min             =   0.0000000000000E+00
(PID.TID 0000.0001) %MON dynstat_uvel_mean            =   0.0000000000000E+00
(PID.TID 0000.0001) %MON dynstat_uvel_sd              =   0.0000000000000E+00
(PID.TID 0000.0001) %MON dynstat_uvel_del2            =   0.0000000000000E+00
(PID.TID 0000.0001) %MON dynstat_vvel_max             =   0.0000000000000E+00
(PID.TID 0000.0001) %MON dynstat_vvel_min             =   0.0000000000000E+00
(PID.TID 0000.0001) %MON dynstat_vvel_mean            =   0.0000000000000E+00
(PID.TID 0000.0001) %MON dynstat_vvel_sd              =   0.0000000000000E+00
(PID.TID 0000.0001) %MON dynstat_vvel_del2            =   0.0000000000000E+00
(PID.TID 0000.0001) %MON dynstat_wvel_max             =   0.0000000000000E+00
(PID.TID 0000.0001) %MON dynstat_wvel_min             =   0.0000000000000E+00
(PID.TID 0000.0001) %MON dynstat_wvel_mean            =   0.0000000000000E+00
(PID.TID 0000.0001) %MON dynstat_wvel_sd              =   0.0000000000000E+00
(PID.TID 0000.0001) %MON dynstat_wvel_del2            =   0.0000000000000E+00
(PID.TID 0000.0001) %MON dynstat_theta_max            =   4.1921910192279E+02
(PID.TID 0000.0001) %MON dynstat_theta_min            =   2.5503644523894E+02
(PID.TID 0000.0001) %MON dynstat_theta_mean           =   3.1867742639049E+02
(PID.TID 0000.0001) %MON dynstat_theta_sd             =   4.5642507144450E+01
(PID.TID 0000.0001) %MON dynstat_theta_del2           =   4.0241168714763E-02
(PID.TID 0000.0001) %MON dynstat_salt_max             =   0.0000000000000E+00
(PID.TID 0000.0001) %MON dynstat_salt_min             =   0.0000000000000E+00
(PID.TID 0000.0001) %MON dynstat_salt_mean            =   0.0000000000000E+00
(PID.TID 0000.0001) %MON dynstat_salt_sd              =   0.0000000000000E+00
(PID.TID 0000.0001) %MON dynstat_salt_del2            =   0.0000000000000E+00
(PID.TID 0000.0001) %MON advcfl_uvel_max              =   0.0000000000000E+00
(PID.TID 0000.0001) %MON advcfl_vvel_max              =   0.0000000000000E+00
(PID.TID 0000.0001) %MON advcfl_wvel_max              =   0.0000000000000E+00
(PID.TID 0000.0001) %MON advcfl_W_hf_max              =   0.0000000000000E+00
(PID.TID 0000.0001) %MON pe_b_mean                    =   0.0000000000000E+00
(PID.TID 0000.0001) %MON ke_max                       =   0.0000000000000E+00
(PID.TID 0000.0001) %MON ke_mean                      =   0.0000000000000E+00
(PID.TID 0000.0001) %MON ke_vol                       =   1.7486817826145E+22
(PID.TID 0000.0001) %MON vort_r_min                   =   0.0000000000000E+00
(PID.TID 0000.0001) %MON vort_r_max                   =   0.0000000000000E+00
(PID.TID 0000.0001) %MON vort_a_mean                  =  -2.9209451854128E-21
(PID.TID 0000.0001) %MON vort_a_sd                    =   8.3955319514376E-05
(PID.TID 0000.0001) %MON vort_p_mean                  =   4.8186785874352E-22
(PID.TID 0000.0001) %MON vort_p_sd                    =   8.3955319514376E-05
(PID.TID 0000.0001) %MON surfExpan_theta_mean         =   0.0000000000000E+00
(PID.TID 0000.0001) %MON surfExpan_salt_mean          =   0.0000000000000E+00
(PID.TID 0000.0001) %MON surfExpan_Heat_mean          =   0.0000000000000E+00
(PID.TID 0000.0001) %MON En_Budget_T2PE_mean          =   0.0000000000000E+00
(PID.TID 0000.0001) // =======================================================
(PID.TID 0000.0001) // End MONITOR dynamic field statistics
(PID.TID 0000.0001) // =======================================================
 cg2d: Sum(rhs),rhsMax =  -1.19348975147204E-15  8.97359314695382E+01
(PID.TID 0000.0001)                    cg2d_init_res =    3.34522080222340E+00
(PID.TID 0000.0001)                       cg2d_iters =    19
(PID.TID 0000.0001)                         cg2d_res =    4.03702091631745E-14
(PID.TID 0000.0001) // =======================================================
(PID.TID 0000.0001) // Begin MONITOR dynamic field statistics
(PID.TID 0000.0001) // =======================================================
(PID.TID 0000.0001) %MON time_tsnumber                =                     1
(PID.TID 0000.0001) %MON time_secondsf                =   1.2000000000000E+03
(PID.TID 0000.0001) %MON dynstat_eta_max              =   1.4335929277102E+02
(PID.TID 0000.0001) %MON dynstat_eta_min              =  -9.2440656691673E+01
(PID.TID 0000.0001) %MON dynstat_eta_mean             =  -6.0807038225685E-15
(PID.TID 0000.0001) %MON dynstat_eta_sd               =   7.6540721260709E+01
(PID.TID 0000.0001) %MON dynstat_eta_del2             =   1.0992341698088E+00
(PID.TID 0000.0001) %MON dynstat_uvel_max             =   5.8522331839387E-16
(PID.TID 0000.0001) %MON dynstat_uvel_min             =  -5.8522331839387E-16
(PID.TID 0000.0001) %MON dynstat_uvel_mean            =   0.0000000000000E+00
(PID.TID 0000.0001) %MON dynstat_uvel_sd              =   2.0618333497552E-17
(PID.TID 0000.0001) %MON dynstat_uvel_del2            =   3.1284126534997E-17
(PID.TID 0000.0001) %MON dynstat_vvel_max             =   5.2726881150810E+00
(PID.TID 0000.0001) %MON dynstat_vvel_min             =  -5.2726881150634E+00
(PID.TID 0000.0001) %MON dynstat_vvel_mean            =   4.6281411120127E-07
(PID.TID 0000.0001) %MON dynstat_vvel_sd              =   1.9374163464083E+00
(PID.TID 0000.0001) %MON dynstat_vvel_del2            =   1.5138490506345E-02
(PID.TID 0000.0001) %MON dynstat_wvel_max             =   1.1946607730912E-01
(PID.TID 0000.0001) %MON dynstat_wvel_min             =  -7.7033880576390E-02
(PID.TID 0000.0001) %MON dynstat_wvel_mean            =   3.6235064951747E-19
(PID.TID 0000.0001) %MON dynstat_wvel_sd              =   5.1844199223292E-02
(PID.TID 0000.0001) %MON dynstat_wvel_del2            =   1.6735908686377E-03
(PID.TID 0000.0001) %MON dynstat_theta_max            =   4.1955348096028E+02
(PID.TID 0000.0001) %MON dynstat_theta_min            =   2.5503646775353E+02
(PID.TID 0000.0001) %MON dynstat_theta_mean           =   3.1869076313071E+02
(PID.TID 0000.0001) %MON dynstat_theta_sd             =   4.5634438104011E+01
(PID.TID 0000.0001) %MON dynstat_theta_del2           =   4.2535901307841E-02
(PID.TID 0000.0001) %MON dynstat_salt_max             =   0.0000000000000E+00
(PID.TID 0000.0001) %MON dynstat_salt_min             =   0.0000000000000E+00
(PID.TID 0000.0001) %MON dynstat_salt_mean            =   0.0000000000000E+00
(PID.TID 0000.0001) %MON dynstat_salt_sd              =   0.0000000000000E+00
(PID.TID 0000.0001) %MON dynstat_salt_del2            =   0.0000000000000E+00
(PID.TID 0000.0001) %MON advcfl_uvel_max              =   4.1696078042274E-21
(PID.TID 0000.0001) %MON advcfl_vvel_max              =   2.0235036780437E-02
(PID.TID 0000.0001) %MON advcfl_wvel_max              =   2.8671858554188E-02
(PID.TID 0000.0001) %MON advcfl_W_hf_max              =   2.8482436498480E-02
(PID.TID 0000.0001) %MON pe_b_mean                    =   2.9292410055548E-02
(PID.TID 0000.0001) %MON ke_max                       =   1.3026550730237E+01
(PID.TID 0000.0001) %MON ke_mean                      =   1.8764141793622E+00
(PID.TID 0000.0001) %MON ke_vol                       =   1.7486817826145E+22
(PID.TID 0000.0001) %MON vort_r_min                   =  -3.1253579404335E-21
(PID.TID 0000.0001) %MON vort_r_max                   =   1.9933172242370E-21
(PID.TID 0000.0001) %MON vort_a_mean                  =  -2.9209451854128E-21
(PID.TID 0000.0001) %MON vort_a_sd                    =   8.3955319514376E-05
(PID.TID 0000.0001) %MON vort_p_mean                  =   4.8186785874352E-22
(PID.TID 0000.0001) %MON vort_p_sd                    =   8.3955319514376E-05
(PID.TID 0000.0001) %MON surfExpan_theta_mean         =  -1.1110632701895E+00
(PID.TID 0000.0001) %MON surfExpan_salt_mean          =   0.0000000000000E+00
(PID.TID 0000.0001) %MON surfExpan_Heat_mean          =  -1.1205695374306E+02
(PID.TID 0000.0001) %MON En_Budget_T2PE_mean          =   3.0624060802308E+01
(PID.TID 0000.0001) // =======================================================
(PID.TID 0000.0001) // End MONITOR dynamic field statistics
(PID.TID 0000.0001) // =======================================================
 cg2d: Sum(rhs),rhsMax =   1.51961776495568E-15  1.89073450912132E+02
(PID.TID 0000.0001)                    cg2d_init_res =    2.90222958552257E+00
(PID.TID 0000.0001)                       cg2d_iters =    18
(PID.TID 0000.0001)                         cg2d_res =    5.23865481131359E-14
(PID.TID 0000.0001) // =======================================================
(PID.TID 0000.0001) // Begin MONITOR dynamic field statistics
(PID.TID 0000.0001) // =======================================================
(PID.TID 0000.0001) %MON time_tsnumber                =                     2
(PID.TID 0000.0001) %MON time_secondsf                =   2.4000000000000E+03
(PID.TID 0000.0001) %MON dynstat_eta_max              =   4.2435855957019E+02
(PID.TID 0000.0001) %MON dynstat_eta_min              =  -2.7278743290318E+02
(PID.TID 0000.0001) %MON dynstat_eta_mean             =  -1.2912986356065E-14
(PID.TID 0000.0001) %MON dynstat_eta_sd               =   2.2413789637268E+02
(PID.TID 0000.0001) %MON dynstat_eta_del2             =   2.1382734928350E+00
(PID.TID 0000.0001) %MON dynstat_uvel_max             =   8.7088558281342E-01
(PID.TID 0000.0001) %MON dynstat_uvel_min             =   3.8323449779852E-05
(PID.TID 0000.0001) %MON dynstat_uvel_mean            =   2.3378354986162E-01
(PID.TID 0000.0001) %MON dynstat_uvel_sd              =   2.2937820439075E-01
(PID.TID 0000.0001) %MON dynstat_uvel_del2            =   2.4523199063372E-03
(PID.TID 0000.0001) %MON dynstat_vvel_max             =   1.0228690360855E+01
(PID.TID 0000.0001) %MON dynstat_vvel_min             =  -1.0228690360602E+01
(PID.TID 0000.0001) %MON dynstat_vvel_mean            =   5.9858353366613E-07
(PID.TID 0000.0001) %MON dynstat_vvel_sd              =   3.8107080577526E+00
(PID.TID 0000.0001) %MON dynstat_vvel_del2            =   2.5136256708987E-02
(PID.TID 0000.0001) %MON dynstat_wvel_max             =   2.3416605566668E-01
(PID.TID 0000.0001) %MON dynstat_wvel_min             =  -1.5028898017623E-01
(PID.TID 0000.0001) %MON dynstat_wvel_mean            =   1.9803020245037E-18
(PID.TID 0000.0001) %MON dynstat_wvel_sd              =   9.9653305627488E-02
(PID.TID 0000.0001) %MON dynstat_wvel_del2            =   1.8870498922526E-03
(PID.TID 0000.0001) %MON dynstat_theta_max            =   4.2021985667317E+02
(PID.TID 0000.0001) %MON dynstat_theta_min            =   2.5503651425748E+02
(PID.TID 0000.0001) %MON dynstat_theta_mean           =   3.1872449346075E+02
(PID.TID 0000.0001) %MON dynstat_theta_sd             =   4.5614069261412E+01
(PID.TID 0000.0001) %MON dynstat_theta_del2           =   4.3855135857222E-02
(PID.TID 0000.0001) %MON dynstat_salt_max             =   0.0000000000000E+00
(PID.TID 0000.0001) %MON dynstat_salt_min             =   0.0000000000000E+00
(PID.TID 0000.0001) %MON dynstat_salt_mean            =   0.0000000000000E+00
(PID.TID 0000.0001) %MON dynstat_salt_sd              =   0.0000000000000E+00
(PID.TID 0000.0001) %MON dynstat_salt_del2            =   0.0000000000000E+00
(PID.TID 0000.0001) %MON advcfl_uvel_max              =   3.0856231979444E-07
(PID.TID 0000.0001) %MON advcfl_vvel_max              =   3.9254725701601E-02
(PID.TID 0000.0001) %MON advcfl_wvel_max              =   5.6199853360004E-02
(PID.TID 0000.0001) %MON advcfl_W_hf_max              =   5.5934455812898E-02
(PID.TID 0000.0001) %MON pe_b_mean                    =   2.5118898295185E-01
(PID.TID 0000.0001) %MON ke_max                       =   8.3726296507290E+03
(PID.TID 0000.0001) %MON ke_mean                      =   7.3129298909225E+00
(PID.TID 0000.0001) %MON ke_vol                       =   1.7486817826145E+22
(PID.TID 0000.0001) %MON vort_r_min                   =  -1.1709343932029E-02
(PID.TID 0000.0001) %MON vort_r_max                   =   1.1708767949918E-02
(PID.TID 0000.0001) %MON vort_a_mean                  =  -4.5757360501810E-14
(PID.TID 0000.0001) %MON vort_a_sd                    =   8.5416162150447E-05
(PID.TID 0000.0001) %MON vort_p_mean                  =  -4.5757363170606E-14
(PID.TID 0000.0001) %MON vort_p_sd                    =   8.5416162150447E-05
(PID.TID 0000.0001) %MON surfExpan_theta_mean         =  -2.1724085412463E+00
(PID.TID 0000.0001) %MON surfExpan_salt_mean          =   0.0000000000000E+00
(PID.TID 0000.0001) %MON surfExpan_Heat_mean          =  -2.1909956880849E+02
(PID.TID 0000.0001) %MON En_Budget_T2PE_mean          =   5.9772676130790E+01
(PID.TID 0000.0001) // =======================================================
(PID.TID 0000.0001) // End MONITOR dynamic field statistics
(PID.TID 0000.0001) // =======================================================
 cg2d: Sum(rhs),rhsMax =   3.42087469462626E-15  3.69983935898360E+02
(PID.TID 0000.0001)                    cg2d_init_res =    2.11083821130790E+00
(PID.TID 0000.0001)                       cg2d_iters =    18
(PID.TID 0000.0001)                         cg2d_res =    3.26481301175538E-14
(PID.TID 0000.0001) // =======================================================
(PID.TID 0000.0001) // Begin MONITOR dynamic field statistics
(PID.TID 0000.0001) // =======================================================
(PID.TID 0000.0001) %MON time_tsnumber                =                     3
(PID.TID 0000.0001) %MON time_secondsf                =   3.6000000000000E+03
(PID.TID 0000.0001) %MON dynstat_eta_max              =   8.2446269050927E+02
(PID.TID 0000.0001) %MON dynstat_eta_min              =  -5.3368676356688E+02
(PID.TID 0000.0001) %MON dynstat_eta_mean             =  -2.5986056726718E-14
(PID.TID 0000.0001) %MON dynstat_eta_sd               =   4.3546355560747E+02
(PID.TID 0000.0001) %MON dynstat_eta_del2             =   2.5720275387609E+00
(PID.TID 0000.0001) %MON dynstat_uvel_max             =   2.2294211938484E+00
(PID.TID 0000.0001) %MON dynstat_uvel_min             =  -1.8620007313257E-02
(PID.TID 0000.0001) %MON dynstat_uvel_mean            =   6.0431470534392E-01
(PID.TID 0000.0001) %MON dynstat_uvel_sd              =   5.9909601279104E-01
(PID.TID 0000.0001) %MON dynstat_uvel_del2            =   6.1771114320511E-03
(PID.TID 0000.0001) %MON dynstat_vvel_max             =   1.4565248770865E+01
(PID.TID 0000.0001) %MON dynstat_vvel_min             =  -1.4565248769040E+01
(PID.TID 0000.0001) %MON dynstat_vvel_mean            =   5.8246103893004E-07
(PID.TID 0000.0001) %MON dynstat_vvel_sd              =   5.5335223305318E+00
(PID.TID 0000.0001) %MON dynstat_vvel_del2            =   3.0426584966469E-02
(PID.TID 0000.0001) %MON dynstat_wvel_max             =   3.3342010911599E-01
(PID.TID 0000.0001) %MON dynstat_wvel_min             =  -2.1753228033551E-01
(PID.TID 0000.0001) %MON dynstat_wvel_mean            =   2.1145783634994E-18
(PID.TID 0000.0001) %MON dynstat_wvel_sd              =   1.4266621389441E-01
(PID.TID 0000.0001) %MON dynstat_wvel_del2            =   1.9144045956993E-03
(PID.TID 0000.0001) %MON dynstat_theta_max            =   4.2091730514757E+02
(PID.TID 0000.0001) %MON dynstat_theta_min            =   2.5503657555975E+02
(PID.TID 0000.0001) %MON dynstat_theta_mean           =   3.1876890183783E+02
(PID.TID 0000.0001) %MON dynstat_theta_sd             =   4.5587070715502E+01
(PID.TID 0000.0001) %MON dynstat_theta_del2           =   4.5686617937588E-02
(PID.TID 0000.0001) %MON dynstat_salt_max             =   0.0000000000000E+00
(PID.TID 0000.0001) %MON dynstat_salt_min             =   0.0000000000000E+00
(PID.TID 0000.0001) %MON dynstat_salt_mean            =   0.0000000000000E+00
(PID.TID 0000.0001) %MON dynstat_salt_sd              =   0.0000000000000E+00
(PID.TID 0000.0001) %MON dynstat_salt_del2            =   0.0000000000000E+00
(PID.TID 0000.0001) %MON advcfl_uvel_max              =   8.1387042094869E-07
(PID.TID 0000.0001) %MON advcfl_vvel_max              =   5.5897170126882E-02
(PID.TID 0000.0001) %MON advcfl_wvel_max              =   8.0020826187838E-02
(PID.TID 0000.0001) %MON advcfl_W_hf_max              =   7.9835956234900E-02
(PID.TID 0000.0001) %MON pe_b_mean                    =   9.4814254131149E-01
(PID.TID 0000.0001) %MON ke_max                       =   5.4649248908455E+04
(PID.TID 0000.0001) %MON ke_mean                      =   1.5668952869780E+01
(PID.TID 0000.0001) %MON ke_vol                       =   1.7486817826145E+22
(PID.TID 0000.0001) %MON vort_r_min                   =  -3.0659014116719E-02
(PID.TID 0000.0001) %MON vort_r_max                   =   3.0658947536092E-02
(PID.TID 0000.0001) %MON vort_a_mean                  =  -5.2437894078475E-14
(PID.TID 0000.0001) %MON vort_a_sd                    =   9.3006690593973E-05
(PID.TID 0000.0001) %MON vort_p_mean                  =  -5.2437889411147E-14
(PID.TID 0000.0001) %MON vort_p_sd                    =   9.3006690593973E-05
(PID.TID 0000.0001) %MON surfExpan_theta_mean         =  -3.1263854891568E+00
(PID.TID 0000.0001) %MON surfExpan_salt_mean          =   0.0000000000000E+00
(PID.TID 0000.0001) %MON surfExpan_Heat_mean          =  -3.1531348712632E+02
(PID.TID 0000.0001) %MON En_Budget_T2PE_mean          =   8.5968268405939E+01
(PID.TID 0000.0001) // =======================================================
(PID.TID 0000.0001) // End MONITOR dynamic field statistics
(PID.TID 0000.0001) // =======================================================
 cg2d: Sum(rhs),rhsMax =   8.25728374564960E-16  6.00188020663806E+02
(PID.TID 0000.0001)                    cg2d_init_res =    1.63582212527080E+00
(PID.TID 0000.0001)                       cg2d_iters =    18
(PID.TID 0000.0001)                         cg2d_res =    1.85317043511649E-14
(PID.TID 0000.0001) // =======================================================
(PID.TID 0000.0001) // Begin MONITOR dynamic field statistics
(PID.TID 0000.0001) // =======================================================
(PID.TID 0000.0001) %MON time_tsnumber                =                     4
(PID.TID 0000.0001) %MON time_secondsf                =   4.8000000000000E+03
(PID.TID 0000.0001) %MON dynstat_eta_max              =   1.3212958932277E+03
(PID.TID 0000.0001) %MON dynstat_eta_min              =  -8.6541627901238E+02
(PID.TID 0000.0001) %MON dynstat_eta_mean             =  -4.3281754720884E-14
(PID.TID 0000.0001) %MON dynstat_eta_sd               =   7.0179723518737E+02
(PID.TID 0000.0001) %MON dynstat_eta_del2             =   3.1001807145343E+00
(PID.TID 0000.0001) %MON dynstat_uvel_max             =   4.0093965036708E+00
(PID.TID 0000.0001) %MON dynstat_uvel_min             =  -7.2580075660595E-02
(PID.TID 0000.0001) %MON dynstat_uvel_mean            =   1.0932707992460E+00
(PID.TID 0000.0001) %MON dynstat_uvel_sd              =   1.0964637363149E+00
(PID.TID 0000.0001) %MON dynstat_uvel_del2            =   1.0567339604370E-02
(PID.TID 0000.0001) %MON dynstat_vvel_max             =   1.8296281264820E+01
(PID.TID 0000.0001) %MON dynstat_vvel_min             =  -1.8296281255931E+01
(PID.TID 0000.0001) %MON dynstat_vvel_mean            =   5.3116825213880E-07
(PID.TID 0000.0001) %MON dynstat_vvel_sd              =   7.0706032526634E+00
(PID.TID 0000.0001) %MON dynstat_vvel_del2            =   3.3580798646957E-02
(PID.TID 0000.0001) %MON dynstat_wvel_max             =   4.1431821124611E-01
(PID.TID 0000.0001) %MON dynstat_wvel_min             =  -2.7771168429245E-01
(PID.TID 0000.0001) %MON dynstat_wvel_mean            =  -1.6374496531309E-19
(PID.TID 0000.0001) %MON dynstat_wvel_sd              =   1.8057778461225E-01
(PID.TID 0000.0001) %MON dynstat_wvel_del2            =   1.7880820877323E-03
(PID.TID 0000.0001) %MON dynstat_theta_max            =   4.2160298209826E+02
(PID.TID 0000.0001) %MON dynstat_theta_min            =   2.5503670912312E+02
(PID.TID 0000.0001) %MON dynstat_theta_mean           =   3.1882219291407E+02
(PID.TID 0000.0001) %MON dynstat_theta_sd             =   4.5554484776141E+01
(PID.TID 0000.0001) %MON dynstat_theta_del2           =   4.6837026528907E-02
(PID.TID 0000.0001) %MON dynstat_salt_max             =   0.0000000000000E+00
(PID.TID 0000.0001) %MON dynstat_salt_min             =   0.0000000000000E+00
(PID.TID 0000.0001) %MON dynstat_salt_mean            =   0.0000000000000E+00
(PID.TID 0000.0001) %MON dynstat_salt_sd              =   0.0000000000000E+00
(PID.TID 0000.0001) %MON dynstat_salt_del2            =   0.0000000000000E+00
(PID.TID 0000.0001) %MON advcfl_uvel_max              =   1.4927750445495E-06
(PID.TID 0000.0001) %MON advcfl_vvel_max              =   7.0215782966552E-02
(PID.TID 0000.0001) %MON advcfl_wvel_max              =   9.9369454583158E-02
(PID.TID 0000.0001) %MON advcfl_W_hf_max              =   9.9436370699067E-02
(PID.TID 0000.0001) %MON pe_b_mean                    =   2.4625967965832E+00
(PID.TID 0000.0001) %MON ke_max                       =   1.7658678130333E+05
(PID.TID 0000.0001) %MON ke_mean                      =   2.6190552938880E+01
(PID.TID 0000.0001) %MON ke_vol                       =   1.7486817826145E+22
(PID.TID 0000.0001) %MON vort_r_min                   =  -5.5817337512210E-02
(PID.TID 0000.0001) %MON vort_r_max                   =   5.5817620584823E-02
(PID.TID 0000.0001) %MON vort_a_mean                  =  -4.9149195875251E-14
(PID.TID 0000.0001) %MON vort_a_sd                    =   1.1052250470253E-04
(PID.TID 0000.0001) %MON vort_p_mean                  =  -4.9149192372312E-14
(PID.TID 0000.0001) %MON vort_p_sd                    =   1.1052250470253E-04
(PID.TID 0000.0001) %MON surfExpan_theta_mean         =  -3.9465786912119E+00
(PID.TID 0000.0001) %MON surfExpan_salt_mean          =   0.0000000000000E+00
(PID.TID 0000.0001) %MON surfExpan_Heat_mean          =  -3.9803456536644E+02
(PID.TID 0000.0001) %MON En_Budget_T2PE_mean          =   1.0858602958985E+02
(PID.TID 0000.0001) // =======================================================
(PID.TID 0000.0001) // End MONITOR dynamic field statistics
(PID.TID 0000.0001) // =======================================================
 cg2d: Sum(rhs),rhsMax =   3.01147995429574E-15  8.71578060598304E+02
(PID.TID 0000.0001)                    cg2d_init_res =    1.31214044644238E+00
(PID.TID 0000.0001)                       cg2d_iters =    17
(PID.TID 0000.0001)                         cg2d_res =    6.51538792559022E-14
(PID.TID 0000.0001) // =======================================================
(PID.TID 0000.0001) // Begin MONITOR dynamic field statistics
(PID.TID 0000.0001) // =======================================================
(PID.TID 0000.0001) %MON time_tsnumber                =                     5
(PID.TID 0000.0001) %MON time_secondsf                =   6.0000000000000E+03
(PID.TID 0000.0001) %MON dynstat_eta_max              =   1.8889461099978E+03
(PID.TID 0000.0001) %MON dynstat_eta_min              =  -1.2560243582790E+03
(PID.TID 0000.0001) %MON dynstat_eta_mean             =  -2.5783627672148E-14
(PID.TID 0000.0001) %MON dynstat_eta_sd               =   1.0127024217682E+03
(PID.TID 0000.0001) %MON dynstat_eta_del2             =   3.6963010534801E+00
(PID.TID 0000.0001) %MON dynstat_uvel_max             =   6.1544675364993E+00
(PID.TID 0000.0001) %MON dynstat_uvel_min             =  -1.8651686058542E-01
(PID.TID 0000.0001) %MON dynstat_uvel_mean            =   1.6817321205835E+00
(PID.TID 0000.0001) %MON dynstat_uvel_sd              =   1.7094970971800E+00
(PID.TID 0000.0001) %MON dynstat_uvel_del2            =   1.5548317506068E-02
(PID.TID 0000.0001) %MON dynstat_vvel_max             =   2.1567476136927E+01
(PID.TID 0000.0001) %MON dynstat_vvel_min             =  -2.1567476119948E+01
(PID.TID 0000.0001) %MON dynstat_vvel_mean            =   4.7022567180838E-07
(PID.TID 0000.0001) %MON dynstat_vvel_sd              =   8.3873310170829E+00
(PID.TID 0000.0001) %MON dynstat_vvel_del2            =   3.5366979663451E-02
(PID.TID 0000.0001) %MON dynstat_wvel_max             =   4.7510456041843E-01
(PID.TID 0000.0001) %MON dynstat_wvel_min             =  -3.2874760551519E-01
(PID.TID 0000.0001) %MON dynstat_wvel_mean            =   2.2331493393435E-19
(PID.TID 0000.0001) %MON dynstat_wvel_sd              =   2.1261940798166E-01
(PID.TID 0000.0001) %MON dynstat_wvel_del2            =   1.6156823947811E-03
(PID.TID 0000.0001) %MON dynstat_theta_max            =   4.2224749971009E+02
(PID.TID 0000.0001) %MON dynstat_theta_min            =   2.5503701842097E+02
(PID.TID 0000.0001) %MON dynstat_theta_mean           =   3.1888226752950E+02
(PID.TID 0000.0001) %MON dynstat_theta_sd             =   4.5517528974960E+01
(PID.TID 0000.0001) %MON dynstat_theta_del2           =   4.7263988851776E-02
(PID.TID 0000.0001) %MON dynstat_salt_max             =   0.0000000000000E+00
(PID.TID 0000.0001) %MON dynstat_salt_min             =   0.0000000000000E+00
(PID.TID 0000.0001) %MON dynstat_salt_mean            =   0.0000000000000E+00
(PID.TID 0000.0001) %MON dynstat_salt_sd              =   0.0000000000000E+00
(PID.TID 0000.0001) %MON dynstat_salt_del2            =   0.0000000000000E+00
(PID.TID 0000.0001) %MON advcfl_uvel_max              =   2.3232540497295E-06
(PID.TID 0000.0001) %MON advcfl_vvel_max              =   8.2769673336769E-02
(PID.TID 0000.0001) %MON advcfl_wvel_max              =   1.1353288799605E-01
(PID.TID 0000.0001) %MON advcfl_W_hf_max              =   1.1402509450042E-01
(PID.TID 0000.0001) %MON pe_b_mean                    =   5.1278309752757E+00
(PID.TID 0000.0001) %MON ke_max                       =   4.1593071786180E+05
(PID.TID 0000.0001) %MON ke_mean                      =   3.8042188046666E+01
(PID.TID 0000.0001) %MON ke_vol                       =   1.7486817826145E+22
(PID.TID 0000.0001) %MON vort_r_min                   =  -8.6227444570332E-02
(PID.TID 0000.0001) %MON vort_r_max                   =   8.6227715472924E-02
(PID.TID 0000.0001) %MON vort_a_mean                  =  -4.8865889985487E-14
(PID.TID 0000.0001) %MON vort_a_sd                    =   1.3862108060964E-04
(PID.TID 0000.0001) %MON vort_p_mean                  =  -4.8865891554603E-14
(PID.TID 0000.0001) %MON vort_p_sd                    =   1.3862108060964E-04
(PID.TID 0000.0001) %MON surfExpan_theta_mean         =  -4.6074889840608E+00
(PID.TID 0000.0001) %MON surfExpan_salt_mean          =   0.0000000000000E+00
(PID.TID 0000.0001) %MON surfExpan_Heat_mean          =  -4.6469107008687E+02
(PID.TID 0000.0001) %MON En_Budget_T2PE_mean          =   1.2705883061642E+02
(PID.TID 0000.0001) // =======================================================
(PID.TID 0000.0001) // End MONITOR dynamic field statistics
(PID.TID 0000.0001) // =======================================================
 cg2d: Sum(rhs),rhsMax =   9.22872889219661E-16  1.17463757355851E+03
(PID.TID 0000.0001)                    cg2d_init_res =    1.07483847930664E+00
(PID.TID 0000.0001)                       cg2d_iters =    17
(PID.TID 0000.0001)                         cg2d_res =    4.83597834739709E-14
(PID.TID 0000.0001) // =======================================================
(PID.TID 0000.0001) // Begin MONITOR dynamic field statistics
(PID.TID 0000.0001) // =======================================================
(PID.TID 0000.0001) %MON time_tsnumber                =                     6
(PID.TID 0000.0001) %MON time_secondsf                =   7.2000000000000E+03
(PID.TID 0000.0001) %MON dynstat_eta_max              =   2.4997129949852E+03
(PID.TID 0000.0001) %MON dynstat_eta_min              =  -1.6915056490473E+03
(PID.TID 0000.0001) %MON dynstat_eta_mean             =  -1.2034409124189E-13
(PID.TID 0000.0001) %MON dynstat_eta_sd               =   1.3563937711360E+03
(PID.TID 0000.0001) %MON dynstat_eta_del2             =   4.2695700710458E+00
(PID.TID 0000.0001) %MON dynstat_uvel_max             =   8.6004656508273E+00
(PID.TID 0000.0001) %MON dynstat_uvel_min             =  -3.6890562243125E-01
(PID.TID 0000.0001) %MON dynstat_uvel_mean            =   2.3473611131428E+00
(PID.TID 0000.0001) %MON dynstat_uvel_sd              =   2.4231951175979E+00
(PID.TID 0000.0001) %MON dynstat_uvel_del2            =   2.0770875877757E-02
(PID.TID 0000.0001) %MON dynstat_vvel_max             =   2.4351166815467E+01
(PID.TID 0000.0001) %MON dynstat_vvel_min             =  -2.4351166765311E+01
(PID.TID 0000.0001) %MON dynstat_vvel_mean            =   4.0228579084162E-07
(PID.TID 0000.0001) %MON dynstat_vvel_sd              =   9.4576605712102E+00
(PID.TID 0000.0001) %MON dynstat_vvel_del2            =   3.6062351520798E-02
(PID.TID 0000.0001) %MON dynstat_wvel_max             =   5.1339149726903E-01
(PID.TID 0000.0001) %MON dynstat_wvel_min             =  -3.6907331892771E-01
(PID.TID 0000.0001) %MON dynstat_wvel_mean            =   1.9821185472707E-18
(PID.TID 0000.0001) %MON dynstat_wvel_sd              =   2.3810216932827E-01
(PID.TID 0000.0001) %MON dynstat_wvel_del2            =   1.4839443706500E-03
(PID.TID 0000.0001) %MON dynstat_theta_max            =   4.2283844413223E+02
(PID.TID 0000.0001) %MON dynstat_theta_min            =   2.5503763345904E+02
(PID.TID 0000.0001) %MON dynstat_theta_mean           =   3.1894683019844E+02
(PID.TID 0000.0001) %MON dynstat_theta_sd             =   4.5477571345097E+01
(PID.TID 0000.0001) %MON dynstat_theta_del2           =   4.7260284094151E-02
(PID.TID 0000.0001) %MON dynstat_salt_max             =   0.0000000000000E+00
(PID.TID 0000.0001) %MON dynstat_salt_min             =   0.0000000000000E+00
(PID.TID 0000.0001) %MON dynstat_salt_mean            =   0.0000000000000E+00
(PID.TID 0000.0001) %MON dynstat_salt_sd              =   0.0000000000000E+00
(PID.TID 0000.0001) %MON dynstat_salt_del2            =   0.0000000000000E+00
(PID.TID 0000.0001) %MON advcfl_uvel_max              =   3.2763633564948E-06
(PID.TID 0000.0001) %MON advcfl_vvel_max              =   9.3452665016952E-02
(PID.TID 0000.0001) %MON advcfl_wvel_max              =   1.2215577023273E-01
(PID.TID 0000.0001) %MON advcfl_W_hf_max              =   1.2321395934457E-01
(PID.TID 0000.0001) %MON pe_b_mean                    =   9.1990203118820E+00
(PID.TID 0000.0001) %MON ke_max                       =   8.1208791301612E+05
(PID.TID 0000.0001) %MON ke_mean                      =   5.0406251768227E+01
(PID.TID 0000.0001) %MON ke_vol                       =   1.7486817826145E+22
(PID.TID 0000.0001) %MON vort_r_min                   =  -1.2071156450384E-01
(PID.TID 0000.0001) %MON vort_r_max                   =   1.2071168223456E-01
(PID.TID 0000.0001) %MON vort_a_mean                  =  -5.2836190108060E-14
(PID.TID 0000.0001) %MON vort_a_sd                    =   1.7554369137958E-04
(PID.TID 0000.0001) %MON vort_p_mean                  =  -5.2836189106900E-14
(PID.TID 0000.0001) %MON vort_p_sd                    =   1.7554369137958E-04
(PID.TID 0000.0001) %MON surfExpan_theta_mean         =  -5.0893869084256E+00
(PID.TID 0000.0001) %MON surfExpan_salt_mean          =   0.0000000000000E+00
(PID.TID 0000.0001) %MON surfExpan_Heat_mean          =  -5.1329317481689E+02
(PID.TID 0000.0001) %MON En_Budget_T2PE_mean          =   1.4099761611730E+02
(PID.TID 0000.0001) // =======================================================
(PID.TID 0000.0001) // End MONITOR dynamic field statistics
(PID.TID 0000.0001) // =======================================================
 cg2d: Sum(rhs),rhsMax =   4.32293090213420E-15  1.49858166120338E+03
(PID.TID 0000.0001)                    cg2d_init_res =    8.91221128917824E-01
(PID.TID 0000.0001)                       cg2d_iters =    17
(PID.TID 0000.0001)                         cg2d_res =    3.35272737217008E-14
(PID.TID 0000.0001) // =======================================================
(PID.TID 0000.0001) // Begin MONITOR dynamic field statistics
(PID.TID 0000.0001) // =======================================================
(PID.TID 0000.0001) %MON time_tsnumber                =                     7
(PID.TID 0000.0001) %MON time_secondsf                =   8.4000000000000E+03
(PID.TID 0000.0001) %MON dynstat_eta_max              =   3.1262331261825E+03
(PID.TID 0000.0001) %MON dynstat_eta_min              =  -2.1561100329583E+03
(PID.TID 0000.0001) %MON dynstat_eta_mean             =  -8.8033325177000E-14
(PID.TID 0000.0001) %MON dynstat_eta_sd               =   1.7201579287352E+03
(PID.TID 0000.0001) %MON dynstat_eta_del2             =   5.1193899936291E+00
(PID.TID 0000.0001) %MON dynstat_uvel_max             =   1.1278497127401E+01
(PID.TID 0000.0001) %MON dynstat_uvel_min             =  -6.3493938025260E-01
(PID.TID 0000.0001) %MON dynstat_uvel_mean            =   3.0654504467440E+00
(PID.TID 0000.0001) %MON dynstat_uvel_sd              =   3.2201768239709E+00
(PID.TID 0000.0001) %MON dynstat_uvel_del2            =   2.6015049576770E-02
(PID.TID 0000.0001) %MON dynstat_vvel_max             =   2.6475554239387E+01
(PID.TID 0000.0001) %MON dynstat_vvel_min             =  -2.6475554115656E+01
(PID.TID 0000.0001) %MON dynstat_vvel_mean            =   3.2914856493122E-07
(PID.TID 0000.0001) %MON dynstat_vvel_sd              =   1.0265790795558E+01
(PID.TID 0000.0001) %MON dynstat_vvel_del2            =   3.6543819925394E-02
(PID.TID 0000.0001) %MON dynstat_wvel_max             =   5.2921781495402E-01
(PID.TID 0000.0001) %MON dynstat_wvel_min             =  -3.9736250588069E-01
(PID.TID 0000.0001) %MON dynstat_wvel_mean            =   3.4581367538477E-18
(PID.TID 0000.0001) %MON dynstat_wvel_sd              =   2.5652801412548E-01
(PID.TID 0000.0001) %MON dynstat_wvel_del2            =   1.4149623358653E-03
(PID.TID 0000.0001) %MON dynstat_theta_max            =   4.2350902310529E+02
(PID.TID 0000.0001) %MON dynstat_theta_min            =   2.5503866893321E+02
(PID.TID 0000.0001) %MON dynstat_theta_mean           =   3.1901347465470E+02
(PID.TID 0000.0001) %MON dynstat_theta_sd             =   4.5436085021403E+01
(PID.TID 0000.0001) %MON dynstat_theta_del2           =   4.7000358731276E-02
(PID.TID 0000.0001) %MON dynstat_salt_max             =   0.0000000000000E+00
(PID.TID 0000.0001) %MON dynstat_salt_min             =   0.0000000000000E+00
(PID.TID 0000.0001) %MON dynstat_salt_mean            =   0.0000000000000E+00
(PID.TID 0000.0001) %MON dynstat_salt_sd              =   0.0000000000000E+00
(PID.TID 0000.0001) %MON dynstat_salt_del2            =   0.0000000000000E+00
(PID.TID 0000.0001) %MON advcfl_uvel_max              =   4.3179208613609E-06
(PID.TID 0000.0001) %MON advcfl_vvel_max              =   1.0160544339502E-01
(PID.TID 0000.0001) %MON advcfl_wvel_max              =   1.2530614803154E-01
(PID.TID 0000.0001) %MON advcfl_W_hf_max              =   1.2701227558896E-01
(PID.TID 0000.0001) %MON pe_b_mean                    =   1.4794716498952E+01
(PID.TID 0000.0001) %MON ke_max                       =   1.3964166245194E+06
(PID.TID 0000.0001) %MON ke_mean                      =   6.2566904176200E+01
(PID.TID 0000.0001) %MON ke_vol                       =   1.7486817826145E+22
(PID.TID 0000.0001) %MON vort_r_min                   =  -1.5794871282643E-01
(PID.TID 0000.0001) %MON vort_r_max                   =   1.5794869072676E-01
(PID.TID 0000.0001) %MON vort_a_mean                  =  -5.9836061129126E-14
(PID.TID 0000.0001) %MON vort_a_sd                    =   2.1895752201527E-04
(PID.TID 0000.0001) %MON vort_p_mean                  =  -5.9836068754219E-14
(PID.TID 0000.0001) %MON vort_p_sd                    =   2.1895752201527E-04
(PID.TID 0000.0001) %MON surfExpan_theta_mean         =  -5.3791266751918E+00
(PID.TID 0000.0001) %MON surfExpan_salt_mean          =   0.0000000000000E+00
(PID.TID 0000.0001) %MON surfExpan_Heat_mean          =  -5.4251505309616E+02
(PID.TID 0000.0001) %MON En_Budget_T2PE_mean          =   1.5020525855535E+02
(PID.TID 0000.0001) // =======================================================
(PID.TID 0000.0001) // End MONITOR dynamic field statistics
(PID.TID 0000.0001) // =======================================================
 cg2d: Sum(rhs),rhsMax =   1.26981758441502E-15  1.83164888962663E+03
(PID.TID 0000.0001)                    cg2d_init_res =    7.43136298050887E-01
(PID.TID 0000.0001)                       cg2d_iters =    17
(PID.TID 0000.0001)                         cg2d_res =    1.98907386457178E-14
(PID.TID 0000.0001) // =======================================================
(PID.TID 0000.0001) // Begin MONITOR dynamic field statistics
(PID.TID 0000.0001) // =======================================================
(PID.TID 0000.0001) %MON time_tsnumber                =                     8
(PID.TID 0000.0001) %MON time_secondsf                =   9.6000000000000E+03
(PID.TID 0000.0001) %MON dynstat_eta_max              =   3.7434381972056E+03
(PID.TID 0000.0001) %MON dynstat_eta_min              =  -2.6328837629459E+03
(PID.TID 0000.0001) %MON dynstat_eta_mean             =  -2.0119127647912E-13
(PID.TID 0000.0001) %MON dynstat_eta_sd               =   2.0907967216888E+03
(PID.TID 0000.0001) %MON dynstat_eta_del2             =   5.9697933743518E+00
(PID.TID 0000.0001) %MON dynstat_uvel_max             =   1.4117347579118E+01
(PID.TID 0000.0001) %MON dynstat_uvel_min             =  -1.0001354029982E+00
(PID.TID 0000.0001) %MON dynstat_uvel_mean            =   3.8097539972728E+00
(PID.TID 0000.0001) %MON dynstat_uvel_sd              =   4.0811547952534E+00
(PID.TID 0000.0001) %MON dynstat_uvel_del2            =   3.1303507565609E-02
(PID.TID 0000.0001) %MON dynstat_vvel_max             =   2.7915329833997E+01
(PID.TID 0000.0001) %MON dynstat_vvel_min             =  -2.7915329572184E+01
(PID.TID 0000.0001) %MON dynstat_vvel_mean            =   2.5408097382993E-07
(PID.TID 0000.0001) %MON dynstat_vvel_sd              =   1.0807280011742E+01
(PID.TID 0000.0001) %MON dynstat_vvel_del2            =   3.6945921484561E-02
(PID.TID 0000.0001) %MON dynstat_wvel_max             =   5.2416931457889E-01
(PID.TID 0000.0001) %MON dynstat_wvel_min             =  -4.1270451740564E-01
(PID.TID 0000.0001) %MON dynstat_wvel_mean            =   2.1881270085155E-18
(PID.TID 0000.0001) %MON dynstat_wvel_sd              =   2.6764378204647E-01
(PID.TID 0000.0001) %MON dynstat_wvel_del2            =   1.3819596214756E-03
(PID.TID 0000.0001) %MON dynstat_theta_max            =   4.2420420431003E+02
(PID.TID 0000.0001) %MON dynstat_theta_min            =   2.5504018235290E+02
(PID.TID 0000.0001) %MON dynstat_theta_mean           =   3.1907977006460E+02
(PID.TID 0000.0001) %MON dynstat_theta_sd             =   4.5394599604423E+01
(PID.TID 0000.0001) %MON dynstat_theta_del2           =   4.7163748315730E-02
(PID.TID 0000.0001) %MON dynstat_salt_max             =   0.0000000000000E+00
(PID.TID 0000.0001) %MON dynstat_salt_min             =   0.0000000000000E+00
(PID.TID 0000.0001) %MON dynstat_salt_mean            =   0.0000000000000E+00
(PID.TID 0000.0001) %MON dynstat_salt_sd              =   0.0000000000000E+00
(PID.TID 0000.0001) %MON dynstat_salt_del2            =   0.0000000000000E+00
(PID.TID 0000.0001) %MON advcfl_uvel_max              =   5.4104065720041E-06
(PID.TID 0000.0001) %MON advcfl_vvel_max              =   1.0713088155420E-01
(PID.TID 0000.0001) %MON advcfl_wvel_max              =   1.2344299558526E-01
(PID.TID 0000.0001) %MON advcfl_W_hf_max              =   1.2580063549893E-01
(PID.TID 0000.0001) %MON pe_b_mean                    =   2.1857154657123E+01
(PID.TID 0000.0001) %MON ke_max                       =   2.1877091618484E+06
(PID.TID 0000.0001) %MON ke_mean                      =   7.3973513664530E+01
(PID.TID 0000.0001) %MON ke_vol                       =   1.7486817826145E+22
(PID.TID 0000.0001) %MON vort_r_min                   =  -1.9654795129303E-01
(PID.TID 0000.0001) %MON vort_r_max                   =   1.9654784698572E-01
(PID.TID 0000.0001) %MON vort_a_mean                  =  -6.8845074126295E-14
(PID.TID 0000.0001) %MON vort_a_sd                    =   2.6670433195974E-04
(PID.TID 0000.0001) %MON vort_p_mean                  =  -6.8845089829543E-14
(PID.TID 0000.0001) %MON vort_p_sd                    =   2.6670433195974E-04
(PID.TID 0000.0001) %MON surfExpan_theta_mean         =  -5.4704798835088E+00
(PID.TID 0000.0001) %MON surfExpan_salt_mean          =   0.0000000000000E+00
(PID.TID 0000.0001) %MON surfExpan_Heat_mean          =  -5.5172853581431E+02
(PID.TID 0000.0001) %MON En_Budget_T2PE_mean          =   1.5467268859622E+02
(PID.TID 0000.0001) // =======================================================
(PID.TID 0000.0001) // End MONITOR dynamic field statistics
(PID.TID 0000.0001) // =======================================================
 cg2d: Sum(rhs),rhsMax =   1.34614541735800E-15  2.16161545376970E+03
(PID.TID 0000.0001)                    cg2d_init_res =    6.19717322752984E-01
(PID.TID 0000.0001)                       cg2d_iters =    17
(PID.TID 0000.0001)                         cg2d_res =    1.77746930525664E-14
(PID.TID 0000.0001) // =======================================================
(PID.TID 0000.0001) // Begin MONITOR dynamic field statistics
(PID.TID 0000.0001) // =======================================================
(PID.TID 0000.0001) %MON time_tsnumber                =                     9
(PID.TID 0000.0001) %MON time_secondsf                =   1.0800000000000E+04
(PID.TID 0000.0001) %MON dynstat_eta_max              =   4.3297961162489E+03
(PID.TID 0000.0001) %MON dynstat_eta_min              =  -3.1044711485231E+03
(PID.TID 0000.0001) %MON dynstat_eta_mean             =  -1.5424632810935E-13
(PID.TID 0000.0001) %MON dynstat_eta_sd               =   2.4550949366623E+03
(PID.TID 0000.0001) %MON dynstat_eta_del2             =   6.8144293957543E+00
(PID.TID 0000.0001) %MON dynstat_uvel_max             =   1.7045336931582E+01
(PID.TID 0000.0001) %MON dynstat_uvel_min             =  -1.4793090766868E+00
(PID.TID 0000.0001) %MON dynstat_uvel_mean            =   4.5533547030623E+00
(PID.TID 0000.0001) %MON dynstat_uvel_sd              =   4.9855337819132E+00
(PID.TID 0000.0001) %MON dynstat_uvel_del2            =   3.6654932655917E-02
(PID.TID 0000.0001) %MON dynstat_vvel_max             =   2.8780894232192E+01
(PID.TID 0000.0001) %MON dynstat_vvel_min             =  -2.8780893916765E+01
(PID.TID 0000.0001) %MON dynstat_vvel_mean            =   1.8068134669699E-07
(PID.TID 0000.0001) %MON dynstat_vvel_sd              =   1.1089991120438E+01
(PID.TID 0000.0001) %MON dynstat_vvel_del2            =   3.7449407963834E-02
(PID.TID 0000.0001) %MON dynstat_wvel_max             =   5.0136018095969E-01
(PID.TID 0000.0001) %MON dynstat_wvel_min             =  -4.2656620874280E-01
(PID.TID 0000.0001) %MON dynstat_wvel_mean            =   3.2266882800582E-18
(PID.TID 0000.0001) %MON dynstat_wvel_sd              =   2.7148171298811E-01
(PID.TID 0000.0001) %MON dynstat_wvel_del2            =   1.3677287067129E-03
(PID.TID 0000.0001) %MON dynstat_theta_max            =   4.2484926101992E+02
(PID.TID 0000.0001) %MON dynstat_theta_min            =   2.5504214739767E+02
(PID.TID 0000.0001) %MON dynstat_theta_mean           =   3.1914334715294E+02
(PID.TID 0000.0001) %MON dynstat_theta_sd             =   4.5354646875289E+01
(PID.TID 0000.0001) %MON dynstat_theta_del2           =   4.7210105258586E-02
(PID.TID 0000.0001) %MON dynstat_salt_max             =   0.0000000000000E+00
(PID.TID 0000.0001) %MON dynstat_salt_min             =   0.0000000000000E+00
(PID.TID 0000.0001) %MON dynstat_salt_mean            =   0.0000000000000E+00
(PID.TID 0000.0001) %MON dynstat_salt_sd              =   0.0000000000000E+00
(PID.TID 0000.0001) %MON dynstat_salt_del2            =   0.0000000000000E+00
(PID.TID 0000.0001) %MON advcfl_uvel_max              =   6.5150793786694E-06
(PID.TID 0000.0001) %MON advcfl_vvel_max              =   1.1045266487440E-01
(PID.TID 0000.0001) %MON advcfl_wvel_max              =   1.1781845040499E-01
(PID.TID 0000.0001) %MON advcfl_W_hf_max              =   1.2032644343033E-01
(PID.TID 0000.0001) %MON pe_b_mean                    =   3.0137455740125E+01
(PID.TID 0000.0001) %MON ke_max                       =   3.1891515209613E+06
(PID.TID 0000.0001) %MON ke_mean                      =   8.4278184942893E+01
(PID.TID 0000.0001) %MON ke_vol                       =   1.7486817826145E+22
(PID.TID 0000.0001) %MON vort_r_min                   =  -2.3511524692810E-01
(PID.TID 0000.0001) %MON vort_r_max                   =   2.3511511318090E-01
(PID.TID 0000.0001) %MON vort_a_mean                  =  -7.9145029907560E-14
(PID.TID 0000.0001) %MON vort_a_sd                    =   3.1686520059854E-04
(PID.TID 0000.0001) %MON vort_p_mean                  =  -7.9145021878848E-14
(PID.TID 0000.0001) %MON vort_p_sd                    =   3.1686520059854E-04
(PID.TID 0000.0001) %MON surfExpan_theta_mean         =  -5.3642547219289E+00
(PID.TID 0000.0001) %MON surfExpan_salt_mean          =   0.0000000000000E+00
(PID.TID 0000.0001) %MON surfExpan_Heat_mean          =  -5.4101513331340E+02
(PID.TID 0000.0001) %MON En_Budget_T2PE_mean          =   1.5456343530622E+02
(PID.TID 0000.0001) // =======================================================
(PID.TID 0000.0001) // End MONITOR dynamic field statistics
(PID.TID 0000.0001) // =======================================================
 cg2d: Sum(rhs),rhsMax =   2.04003480774873E-15  2.47650463561339E+03
(PID.TID 0000.0001)                    cg2d_init_res =    5.13984169051549E-01
(PID.TID 0000.0001)                       cg2d_iters =    17
(PID.TID 0000.0001)                         cg2d_res =    1.79143106202902E-14
(PID.TID 0000.0001) // =======================================================
(PID.TID 0000.0001) // Begin MONITOR dynamic field statistics
(PID.TID 0000.0001) // =======================================================
(PID.TID 0000.0001) %MON time_tsnumber                =                    10
(PID.TID 0000.0001) %MON time_secondsf                =   1.2000000000000E+04
(PID.TID 0000.0001) %MON dynstat_eta_max              =   4.8674442991409E+03
(PID.TID 0000.0001) %MON dynstat_eta_min              =  -3.5540859436946E+03
(PID.TID 0000.0001) %MON dynstat_eta_mean             =  -1.8059789902301E-13
(PID.TID 0000.0001) %MON dynstat_eta_sd               =   2.8002957943868E+03
(PID.TID 0000.0001) %MON dynstat_eta_del2             =   7.6443069087270E+00
(PID.TID 0000.0001) %MON dynstat_uvel_max             =   1.9991772058577E+01
(PID.TID 0000.0001) %MON dynstat_uvel_min             =  -2.0855475413153E+00
(PID.TID 0000.0001) %MON dynstat_uvel_mean            =   5.2695850966234E+00
(PID.TID 0000.0001) %MON dynstat_uvel_sd              =   5.9121507144754E+00
(PID.TID 0000.0001) %MON dynstat_uvel_del2            =   4.1813115595957E-02
(PID.TID 0000.0001) %MON dynstat_vvel_max             =   2.9178771848195E+01
(PID.TID 0000.0001) %MON dynstat_vvel_min             =  -2.9178771305267E+01
(PID.TID 0000.0001) %MON dynstat_vvel_mean            =   1.1220320755389E-07
(PID.TID 0000.0001) %MON dynstat_vvel_sd              =   1.1134787786836E+01
(PID.TID 0000.0001) %MON dynstat_vvel_del2            =   3.8285798061048E-02
(PID.TID 0000.0001) %MON dynstat_wvel_max             =   4.7178920814758E-01
(PID.TID 0000.0001) %MON dynstat_wvel_min             =  -4.3072886888805E-01
(PID.TID 0000.0001) %MON dynstat_wvel_mean            =   5.2173277246047E-19
(PID.TID 0000.0001) %MON dynstat_wvel_sd              =   2.6838406542051E-01
(PID.TID 0000.0001) %MON dynstat_wvel_del2            =   1.3995580507851E-03
(PID.TID 0000.0001) %MON dynstat_theta_max            =   4.2545066093649E+02
(PID.TID 0000.0001) %MON dynstat_theta_min            =   2.5504444692852E+02
(PID.TID 0000.0001) %MON dynstat_theta_mean           =   3.1920198105706E+02
(PID.TID 0000.0001) %MON dynstat_theta_sd             =   4.5317701733412E+01
(PID.TID 0000.0001) %MON dynstat_theta_del2           =   4.6966625706647E-02
(PID.TID 0000.0001) %MON dynstat_salt_max             =   0.0000000000000E+00
(PID.TID 0000.0001) %MON dynstat_salt_min             =   0.0000000000000E+00
(PID.TID 0000.0001) %MON dynstat_salt_mean            =   0.0000000000000E+00
(PID.TID 0000.0001) %MON dynstat_salt_sd              =   0.0000000000000E+00
(PID.TID 0000.0001) %MON dynstat_salt_del2            =   0.0000000000000E+00
(PID.TID 0000.0001) %MON advcfl_uvel_max              =   7.5937620807689E-06
(PID.TID 0000.0001) %MON advcfl_vvel_max              =   1.1197960294057E-01
(PID.TID 0000.0001) %MON advcfl_wvel_max              =   1.1035742024380E-01
(PID.TID 0000.0001) %MON advcfl_W_hf_max              =   1.1322940995542E-01
(PID.TID 0000.0001) %MON pe_b_mean                    =   3.9208282680301E+01
(PID.TID 0000.0001) %MON ke_max                       =   4.3868529981471E+06
(PID.TID 0000.0001) %MON ke_mean                      =   9.3343476645109E+01
(PID.TID 0000.0001) %MON ke_vol                       =   1.7486817826145E+22
(PID.TID 0000.0001) %MON vort_r_min                   =  -2.7229882788145E-01
(PID.TID 0000.0001) %MON vort_r_max                   =   2.7229870313275E-01
(PID.TID 0000.0001) %MON vort_a_mean                  =  -9.0084305589680E-14
(PID.TID 0000.0001) %MON vort_a_sd                    =   3.6770375898581E-04
(PID.TID 0000.0001) %MON vort_p_mean                  =  -9.0084304366247E-14
(PID.TID 0000.0001) %MON vort_p_sd                    =   3.6770375898581E-04
(PID.TID 0000.0001) %MON surfExpan_theta_mean         =  -5.0681742758476E+00
(PID.TID 0000.0001) %MON surfExpan_salt_mean          =   0.0000000000000E+00
(PID.TID 0000.0001) %MON surfExpan_Heat_mean          =  -5.1115376201175E+02
(PID.TID 0000.0001) %MON En_Budget_T2PE_mean          =   1.5018885021987E+02
(PID.TID 0000.0001) // =======================================================
(PID.TID 0000.0001) // End MONITOR dynamic field statistics
(PID.TID 0000.0001) // =======================================================
objf_test       314.8    1   31    1 TILE     1   31    1    1
objf_test       629.6    2   31    1 TILE     2   31    1    1
objf_test       944.7    1   32    1 TILE     1   32    1    1
objf_test      1259.8    2   32    1 TILE     2   32    1    1
objf_test      1574.9    1   33    1 TILE     1   33    1    1
objf_test      1890.0    2   33    1 TILE     2   33    1    1
objf_test      2204.8    1   34    1 TILE     1   34    1    1
objf_test      2519.6    2   34    1 TILE     2   34    1    1
objf_test      2833.8    1   35    1 TILE     1   35    1    1
objf_test      3148.0    2   35    1 TILE     2   35    1    1
objf_test      3461.4    1   36    1 TILE     1   36    1    1
objf_test      3774.8    2   36    1 TILE     2   36    1    1
objf_test      4087.0    1   37    1 TILE     1   37    1    1
objf_test      4399.2    2   37    1 TILE     2   37    1    1
objf_test      4710.1    1   38    1 TILE     1   38    1    1
objf_test      5020.9    2   38    1 TILE     2   38    1    1
objf_test      5330.1    1   39    1 TILE     1   39    1    1
objf_test      5639.3    2   39    1 TILE     2   39    1    1
  --> objf_test(bi,bj)   =  626.587786
  --> objf_tracer(bi,bj) =  0.
  --> objf_atl(bi,bj)    =  0.
  local fc =   626.587786
  global fc =   626.587786
 ph-check fcpertplus =   626.587786
(PID.TID 0000.0001)  MDSREADFIELD: opening file: xx_theta.0000000000.001.001.data
 ph-check fcpertminus =   626.587786
(PID.TID 0000.0001)  MDSREADFIELD: opening file: xx_theta.0000000000.001.001.data
(PID.TID 0000.0001) %MON En_BudgetfCori_max           =   1.4540029928789E-04
(PID.TID 0000.0001) %MON En_BudgetfCori_min           =  -1.4540029928789E-04
(PID.TID 0000.0001) %MON En_BudgetfCori_mean          =   0.0000000000000E+00
(PID.TID 0000.0001) %MON En_BudgetfCori_sd            =   1.0284451245737E-04
(PID.TID 0000.0001) %MON En_BudgetfCoriG_max          =   1.4526891053949E-04
(PID.TID 0000.0001) %MON En_BudgetfCoriG_min          =  -1.4544410433286E-04
(PID.TID 0000.0001) %MON En_BudgetfCoriG_mean         =  -2.3086365767121E-06
(PID.TID 0000.0001) %MON En_BudgetfCoriG_sd           =   1.0363181330709E-04
(PID.TID 0000.0001) %MON En_BudgetfCoriCos_max        =   1.4540029928789E-04
(PID.TID 0000.0001) %MON En_BudgetfCoriCos_min        =   3.5693770017430E-06
(PID.TID 0000.0001) %MON En_BudgetfCoriCos_mean       =   9.2601889431869E-05
(PID.TID 0000.0001) %MON En_BudgetfCoriCos_sd         =   4.4742416298653E-05
(PID.TID 0000.0001) // CG2D normalisation factor =          0.2278126663032464164969763E-09
(PID.TID 0000.0001) 
(PID.TID 0000.0001) // =======================================================
(PID.TID 0000.0001) // Field Initial Temperature at iteration          1
(PID.TID 0000.0001) // CMIN =          2.550364452389422E+02
(PID.TID 0000.0001) // CMAX =          3.154764877049333E+02
(PID.TID 0000.0001) // CINT =          2.238520091333006E+00
(PID.TID 0000.0001) // SYMBOLS (CMIN->CMAX): -abcdefghijklmnopqrstuvwxyz+
(PID.TID 0000.0001) //                  0.0: .
(PID.TID 0000.0001) // RANGE I (Lo:Hi:Step):(   1:   2:   1)
(PID.TID 0000.0001) // RANGE J (Lo:Hi:Step):(  64:   1:  -1)
(PID.TID 0000.0001) // RANGE K (Lo:Hi:Step):(   1:   1:   1)
(PID.TID 0000.0001) // =======================================================
(PID.TID 0000.0001) K =   1
(PID.TID 0000.0001) 
(PID.TID 0000.0001) |--J--|12
(PID.TID 0000.0001)     64 --
(PID.TID 0000.0001)     63 --
(PID.TID 0000.0001)     62 --
(PID.TID 0000.0001)     61 aa
(PID.TID 0000.0001)     60 aa
(PID.TID 0000.0001)     59 bb
(PID.TID 0000.0001)     58 cc
(PID.TID 0000.0001)     57 cc
(PID.TID 0000.0001)     56 dd
(PID.TID 0000.0001)     55 ee
(PID.TID 0000.0001)     54 gg
(PID.TID 0000.0001)     53 hh
(PID.TID 0000.0001)     52 ii
(PID.TID 0000.0001)     51 jj
(PID.TID 0000.0001)     50 ll
(PID.TID 0000.0001)     49 mm
(PID.TID 0000.0001)     48 nn
(PID.TID 0000.0001)     47 oo
(PID.TID 0000.0001)     46 qq
(PID.TID 0000.0001)     45 rr
(PID.TID 0000.0001)     44 ss
(PID.TID 0000.0001)     43 tt
(PID.TID 0000.0001)     42 vv
(PID.TID 0000.0001)     41 ww
(PID.TID 0000.0001)     40 xx
(PID.TID 0000.0001)     39 xx
(PID.TID 0000.0001)     38 yy
(PID.TID 0000.0001)     37 zz
(PID.TID 0000.0001)     36 zz
(PID.TID 0000.0001)     35 ++
(PID.TID 0000.0001)     34 ++
(PID.TID 0000.0001)     33 ++
(PID.TID 0000.0001)     32 ++
(PID.TID 0000.0001)     31 ++
(PID.TID 0000.0001)     30 ++
(PID.TID 0000.0001)     29 zz
(PID.TID 0000.0001)     28 zz
(PID.TID 0000.0001)     27 yy
(PID.TID 0000.0001)     26 xx
(PID.TID 0000.0001)     25 xx
(PID.TID 0000.0001)     24 ww
(PID.TID 0000.0001)     23 vv
(PID.TID 0000.0001)     22 tt
(PID.TID 0000.0001)     21 ss
(PID.TID 0000.0001)     20 rr
(PID.TID 0000.0001)     19 qq
(PID.TID 0000.0001)     18 oo
(PID.TID 0000.0001)     17 nn
(PID.TID 0000.0001)     16 mm
(PID.TID 0000.0001)     15 ll
(PID.TID 0000.0001)     14 jj
(PID.TID 0000.0001)     13 ii
(PID.TID 0000.0001)     12 hh
(PID.TID 0000.0001)     11 gg
(PID.TID 0000.0001)     10 ee
(PID.TID 0000.0001)      9 dd
(PID.TID 0000.0001)      8 cc
(PID.TID 0000.0001)      7 cc
(PID.TID 0000.0001)      6 bb
(PID.TID 0000.0001)      5 aa
(PID.TID 0000.0001)      4 aa
(PID.TID 0000.0001)      3 --
(PID.TID 0000.0001)      2 --
(PID.TID 0000.0001)      1 --
(PID.TID 0000.0001) // =======================================================
(PID.TID 0000.0001) // END OF FIELD                                          =
(PID.TID 0000.0001) // =======================================================
(PID.TID 0000.0001) 
(PID.TID 0000.0001) // =======================================================
(PID.TID 0000.0001) // Field Initial Salinity at iteration          1
(PID.TID 0000.0001) // CMIN =          1.000000000000000E+32
(PID.TID 0000.0001) // CMAX =         -1.000000000000000E+32
(PID.TID 0000.0001) // CINT =          0.000000000000000E+00
(PID.TID 0000.0001) // SYMBOLS (CMIN->CMAX): -abcdefghijklmnopqrstuvwxyz+
(PID.TID 0000.0001) //                  0.0: .
(PID.TID 0000.0001) // RANGE I (Lo:Hi:Step):(   1:   2:   1)
(PID.TID 0000.0001) // RANGE J (Lo:Hi:Step):(  64:   1:  -1)
(PID.TID 0000.0001) // RANGE K (Lo:Hi:Step):(   1:   1:   1)
(PID.TID 0000.0001) // =======================================================
(PID.TID 0000.0001) // =======================================================
(PID.TID 0000.0001) // END OF FIELD                                          =
(PID.TID 0000.0001) // =======================================================
(PID.TID 0000.0001) 
(PID.TID 0000.0001) Start initial hydrostatic pressure computation
(PID.TID 0000.0001) Pressure is predetermined for buoyancyRelation ATMOSPHERIC
(PID.TID 0000.0001) 
(PID.TID 0000.0001)  MDSREADFIELD: opening file: xx_theta.0000000000.001.001.data
(PID.TID 0000.0001)  MDSREADFIELD: opening file: xx_salt.0000000000.001.001.data
(PID.TID 0000.0001)  MDSREADFIELD: opening file: xx_diffkr.0000000000.001.001.data
(PID.TID 0000.0001) // =======================================================
(PID.TID 0000.0001) // Model current state
(PID.TID 0000.0001) // =======================================================
(PID.TID 0000.0001) 
(PID.TID 0000.0001) // =======================================================
(PID.TID 0000.0001) // Begin MONITOR dynamic field statistics
(PID.TID 0000.0001) // =======================================================
(PID.TID 0000.0001) %MON time_tsnumber                =                     0
(PID.TID 0000.0001) %MON time_secondsf                =   0.0000000000000E+00
(PID.TID 0000.0001) %MON dynstat_eta_max              =   0.0000000000000E+00
(PID.TID 0000.0001) %MON dynstat_eta_min              =   0.0000000000000E+00
(PID.TID 0000.0001) %MON dynstat_eta_mean             =   0.0000000000000E+00
(PID.TID 0000.0001) %MON dynstat_eta_sd               =   0.0000000000000E+00
(PID.TID 0000.0001) %MON dynstat_eta_del2             =   0.0000000000000E+00
(PID.TID 0000.0001) %MON dynstat_uvel_max             =   0.0000000000000E+00
(PID.TID 0000.0001) %MON dynstat_uvel_min             =   0.0000000000000E+00
(PID.TID 0000.0001) %MON dynstat_uvel_mean            =   0.0000000000000E+00
(PID.TID 0000.0001) %MON dynstat_uvel_sd              =   0.0000000000000E+00
(PID.TID 0000.0001) %MON dynstat_uvel_del2            =   0.0000000000000E+00
(PID.TID 0000.0001) %MON dynstat_vvel_max             =   0.0000000000000E+00
(PID.TID 0000.0001) %MON dynstat_vvel_min             =   0.0000000000000E+00
(PID.TID 0000.0001) %MON dynstat_vvel_mean            =   0.0000000000000E+00
(PID.TID 0000.0001) %MON dynstat_vvel_sd              =   0.0000000000000E+00
(PID.TID 0000.0001) %MON dynstat_vvel_del2            =   0.0000000000000E+00
(PID.TID 0000.0001) %MON dynstat_wvel_max             =   0.0000000000000E+00
(PID.TID 0000.0001) %MON dynstat_wvel_min             =   0.0000000000000E+00
(PID.TID 0000.0001) %MON dynstat_wvel_mean            =   0.0000000000000E+00
(PID.TID 0000.0001) %MON dynstat_wvel_sd              =   0.0000000000000E+00
(PID.TID 0000.0001) %MON dynstat_wvel_del2            =   0.0000000000000E+00
(PID.TID 0000.0001) %MON dynstat_theta_max            =   4.1921910192279E+02
(PID.TID 0000.0001) %MON dynstat_theta_min            =   2.5502644523894E+02
(PID.TID 0000.0001) %MON dynstat_theta_mean           =   3.1867742639046E+02
(PID.TID 0000.0001) %MON dynstat_theta_sd             =   4.5642507144488E+01
(PID.TID 0000.0001) %MON dynstat_theta_del2           =   4.0241168714763E-02
(PID.TID 0000.0001) %MON dynstat_salt_max             =   0.0000000000000E+00
(PID.TID 0000.0001) %MON dynstat_salt_min             =   0.0000000000000E+00
(PID.TID 0000.0001) %MON dynstat_salt_mean            =   0.0000000000000E+00
(PID.TID 0000.0001) %MON dynstat_salt_sd              =   0.0000000000000E+00
(PID.TID 0000.0001) %MON dynstat_salt_del2            =   0.0000000000000E+00
(PID.TID 0000.0001) %MON advcfl_uvel_max              =   0.0000000000000E+00
(PID.TID 0000.0001) %MON advcfl_vvel_max              =   0.0000000000000E+00
(PID.TID 0000.0001) %MON advcfl_wvel_max              =   0.0000000000000E+00
(PID.TID 0000.0001) %MON advcfl_W_hf_max              =   0.0000000000000E+00
(PID.TID 0000.0001) %MON pe_b_mean                    =   0.0000000000000E+00
(PID.TID 0000.0001) %MON ke_max                       =   0.0000000000000E+00
(PID.TID 0000.0001) %MON ke_mean                      =   0.0000000000000E+00
(PID.TID 0000.0001) %MON ke_vol                       =   1.7486817826145E+22
(PID.TID 0000.0001) %MON vort_r_min                   =   0.0000000000000E+00
(PID.TID 0000.0001) %MON vort_r_max                   =   0.0000000000000E+00
(PID.TID 0000.0001) %MON vort_a_mean                  =  -2.9209451854128E-21
(PID.TID 0000.0001) %MON vort_a_sd                    =   8.3955319514376E-05
(PID.TID 0000.0001) %MON vort_p_mean                  =   4.8186785874352E-22
(PID.TID 0000.0001) %MON vort_p_sd                    =   8.3955319514376E-05
(PID.TID 0000.0001) %MON surfExpan_theta_mean         =   0.0000000000000E+00
(PID.TID 0000.0001) %MON surfExpan_salt_mean          =   0.0000000000000E+00
(PID.TID 0000.0001) %MON surfExpan_Heat_mean          =   0.0000000000000E+00
(PID.TID 0000.0001) %MON En_Budget_T2PE_mean          =   0.0000000000000E+00
(PID.TID 0000.0001) // =======================================================
(PID.TID 0000.0001) // End MONITOR dynamic field statistics
(PID.TID 0000.0001) // =======================================================
 cg2d: Sum(rhs),rhsMax =  -2.08166817117217E-15  8.97359314695382E+01
(PID.TID 0000.0001)                    cg2d_init_res =    3.34521731075648E+00
(PID.TID 0000.0001)                       cg2d_iters =    19
(PID.TID 0000.0001)                         cg2d_res =    4.03622013755897E-14
(PID.TID 0000.0001) // =======================================================
(PID.TID 0000.0001) // Begin MONITOR dynamic field statistics
(PID.TID 0000.0001) // =======================================================
(PID.TID 0000.0001) %MON time_tsnumber                =                     1
(PID.TID 0000.0001) %MON time_secondsf                =   1.2000000000000E+03
(PID.TID 0000.0001) %MON dynstat_eta_max              =   1.4348145476122E+02
(PID.TID 0000.0001) %MON dynstat_eta_min              =  -9.2440656691674E+01
(PID.TID 0000.0001) %MON dynstat_eta_mean             =  -1.5745712155148E-15
(PID.TID 0000.0001) %MON dynstat_eta_sd               =   7.6540730958422E+01
(PID.TID 0000.0001) %MON dynstat_eta_del2             =   1.0992341148153E+00
(PID.TID 0000.0001) %MON dynstat_uvel_max             =   5.8178082828567E-16
(PID.TID 0000.0001) %MON dynstat_uvel_min             =  -5.8178082828567E-16
(PID.TID 0000.0001) %MON dynstat_uvel_mean            =   0.0000000000000E+00
(PID.TID 0000.0001) %MON dynstat_uvel_sd              =   2.0509294330567E-17
(PID.TID 0000.0001) %MON dynstat_uvel_del2            =   3.1107456603978E-17
(PID.TID 0000.0001) %MON dynstat_vvel_max             =   5.2726881150810E+00
(PID.TID 0000.0001) %MON dynstat_vvel_min             =  -5.2726881150985E+00
(PID.TID 0000.0001) %MON dynstat_vvel_mean            =  -4.6281411119319E-07
(PID.TID 0000.0001) %MON dynstat_vvel_sd              =   1.9374165389226E+00
(PID.TID 0000.0001) %MON dynstat_vvel_del2            =   1.5137701005909E-02
(PID.TID 0000.0001) %MON dynstat_wvel_max             =   1.1956787896762E-01
(PID.TID 0000.0001) %MON dynstat_wvel_min             =  -7.7033880576390E-02
(PID.TID 0000.0001) %MON dynstat_wvel_mean            =   5.7335587659197E-19
(PID.TID 0000.0001) %MON dynstat_wvel_sd              =   5.1844204037208E-02
(PID.TID 0000.0001) %MON dynstat_wvel_del2            =   1.6735908486620E-03
(PID.TID 0000.0001) %MON dynstat_theta_max            =   4.1955348096026E+02
(PID.TID 0000.0001) %MON dynstat_theta_min            =   2.5503177648385E+02
(PID.TID 0000.0001) %MON dynstat_theta_mean           =   3.1869076251844E+02
(PID.TID 0000.0001) %MON dynstat_theta_sd             =   4.5634438961636E+01
(PID.TID 0000.0001) %MON dynstat_theta_del2           =   4.2535901282320E-02
(PID.TID 0000.0001) %MON dynstat_salt_max             =   0.0000000000000E+00
(PID.TID 0000.0001) %MON dynstat_salt_min             =   0.0000000000000E+00
(PID.TID 0000.0001) %MON dynstat_salt_mean            =   0.0000000000000E+00
(PID.TID 0000.0001) %MON dynstat_salt_sd              =   0.0000000000000E+00
(PID.TID 0000.0001) %MON dynstat_salt_del2            =   0.0000000000000E+00
(PID.TID 0000.0001) %MON advcfl_uvel_max              =   4.1450806994966E-21
(PID.TID 0000.0001) %MON advcfl_vvel_max              =   2.0235036780504E-02
(PID.TID 0000.0001) %MON advcfl_wvel_max              =   2.8696290952229E-02
(PID.TID 0000.0001) %MON advcfl_W_hf_max              =   2.8510619767813E-02
(PID.TID 0000.0001) %MON pe_b_mean                    =   2.9292417478247E-02
(PID.TID 0000.0001) %MON ke_max                       =   1.3026550730302E+01
(PID.TID 0000.0001) %MON ke_mean                      =   1.8764145522678E+00
(PID.TID 0000.0001) %MON ke_vol                       =   1.7486817826145E+22
(PID.TID 0000.0001) %MON vort_r_min                   =  -2.6057310976391E-21
(PID.TID 0000.0001) %MON vort_r_max                   =   3.3085756823206E-21
(PID.TID 0000.0001) %MON vort_a_mean                  =  -2.9209451854128E-21
(PID.TID 0000.0001) %MON vort_a_sd                    =   8.3955319514376E-05
(PID.TID 0000.0001) %MON vort_p_mean                  =   4.8186785874352E-22
(PID.TID 0000.0001) %MON vort_p_sd                    =   8.3955319514376E-05
(PID.TID 0000.0001) %MON surfExpan_theta_mean         =  -1.1110641865501E+00
(PID.TID 0000.0001) %MON surfExpan_salt_mean          =   0.0000000000000E+00
(PID.TID 0000.0001) %MON surfExpan_Heat_mean          =  -1.1205704616316E+02
(PID.TID 0000.0001) %MON En_Budget_T2PE_mean          =   3.0624065831093E+01
(PID.TID 0000.0001) // =======================================================
(PID.TID 0000.0001) // End MONITOR dynamic field statistics
(PID.TID 0000.0001) // =======================================================
 cg2d: Sum(rhs),rhsMax =   1.59594559789866E-15  1.89073450912132E+02
(PID.TID 0000.0001)                    cg2d_init_res =    2.90222799201892E+00
(PID.TID 0000.0001)                       cg2d_iters =    18
(PID.TID 0000.0001)                         cg2d_res =    5.23848076340098E-14
(PID.TID 0000.0001) // =======================================================
(PID.TID 0000.0001) // Begin MONITOR dynamic field statistics
(PID.TID 0000.0001) // =======================================================
(PID.TID 0000.0001) %MON time_tsnumber                =                     2
(PID.TID 0000.0001) %MON time_secondsf                =   2.4000000000000E+03
(PID.TID 0000.0001) %MON dynstat_eta_max              =   4.2453705775047E+02
(PID.TID 0000.0001) %MON dynstat_eta_min              =  -2.7278743290319E+02
(PID.TID 0000.0001) %MON dynstat_eta_mean             =  -2.9490557122918E-15
(PID.TID 0000.0001) %MON dynstat_eta_sd               =   2.2413792538838E+02
(PID.TID 0000.0001) %MON dynstat_eta_del2             =   2.1382731090108E+00
(PID.TID 0000.0001) %MON dynstat_uvel_max             =   8.7088558281836E-01
(PID.TID 0000.0001) %MON dynstat_uvel_min             =   3.8323449779855E-05
(PID.TID 0000.0001) %MON dynstat_uvel_mean            =   2.3378380484882E-01
(PID.TID 0000.0001) %MON dynstat_uvel_sd              =   2.2937807792821E-01
(PID.TID 0000.0001) %MON dynstat_uvel_del2            =   2.4521559571853E-03
(PID.TID 0000.0001) %MON dynstat_vvel_max             =   1.0228690360855E+01
(PID.TID 0000.0001) %MON dynstat_vvel_min             =  -1.0228690361107E+01
(PID.TID 0000.0001) %MON dynstat_vvel_mean            =  -5.9857417376749E-07
(PID.TID 0000.0001) %MON dynstat_vvel_sd              =   3.8107084355039E+00
(PID.TID 0000.0001) %MON dynstat_vvel_del2            =   2.5137234889663E-02
(PID.TID 0000.0001) %MON dynstat_wvel_max             =   2.3421300249175E-01
(PID.TID 0000.0001) %MON dynstat_wvel_min             =  -1.5028898017624E-01
(PID.TID 0000.0001) %MON dynstat_wvel_mean            =   8.4704345535347E-19
(PID.TID 0000.0001) %MON dynstat_wvel_sd              =   9.9653315290136E-02
(PID.TID 0000.0001) %MON dynstat_wvel_del2            =   1.8870494722953E-03
(PID.TID 0000.0001) %MON dynstat_theta_max            =   4.2021985667295E+02
(PID.TID 0000.0001) %MON dynstat_theta_min            =   2.5503206838760E+02
(PID.TID 0000.0001) %MON dynstat_theta_mean           =   3.1872449286252E+02
(PID.TID 0000.0001) %MON dynstat_theta_sd             =   4.5614070101536E+01
(PID.TID 0000.0001) %MON dynstat_theta_del2           =   4.3855133224857E-02
(PID.TID 0000.0001) %MON dynstat_salt_max             =   0.0000000000000E+00
(PID.TID 0000.0001) %MON dynstat_salt_min             =   0.0000000000000E+00
(PID.TID 0000.0001) %MON dynstat_salt_mean            =   0.0000000000000E+00
(PID.TID 0000.0001) %MON dynstat_salt_sd              =   0.0000000000000E+00
(PID.TID 0000.0001) %MON dynstat_salt_del2            =   0.0000000000000E+00
(PID.TID 0000.0001) %MON advcfl_uvel_max              =   3.0877917412654E-07
(PID.TID 0000.0001) %MON advcfl_vvel_max              =   3.9254725702570E-02
(PID.TID 0000.0001) %MON advcfl_wvel_max              =   5.6211120598019E-02
(PID.TID 0000.0001) %MON advcfl_W_hf_max              =   5.5955010972984E-02
(PID.TID 0000.0001) %MON pe_b_mean                    =   2.5118904798703E-01
(PID.TID 0000.0001) %MON ke_max                       =   8.3726296508272E+03
(PID.TID 0000.0001) %MON ke_mean                      =   7.3129313607407E+00
(PID.TID 0000.0001) %MON ke_vol                       =   1.7486817826145E+22
(PID.TID 0000.0001) %MON vort_r_min                   =  -1.1708191967806E-02
(PID.TID 0000.0001) %MON vort_r_max                   =   1.1708767949918E-02
(PID.TID 0000.0001) %MON vort_a_mean                  =   4.5757361772723E-14
(PID.TID 0000.0001) %MON vort_a_sd                    =   8.5416157611695E-05
(PID.TID 0000.0001) %MON vort_p_mean                  =   4.5757363680173E-14
(PID.TID 0000.0001) %MON vort_p_sd                    =   8.5416157611696E-05
(PID.TID 0000.0001) %MON surfExpan_theta_mean         =  -2.1724103472043E+00
(PID.TID 0000.0001) %MON surfExpan_salt_mean          =   0.0000000000000E+00
(PID.TID 0000.0001) %MON surfExpan_Heat_mean          =  -2.1909975094947E+02
(PID.TID 0000.0001) %MON En_Budget_T2PE_mean          =   5.9772685852503E+01
(PID.TID 0000.0001) // =======================================================
(PID.TID 0000.0001) // End MONITOR dynamic field statistics
(PID.TID 0000.0001) // =======================================================
 cg2d: Sum(rhs),rhsMax =   3.55965257270441E-15  3.69983935898368E+02
(PID.TID 0000.0001)                    cg2d_init_res =    2.11083769222867E+00
(PID.TID 0000.0001)                       cg2d_iters =    18
(PID.TID 0000.0001)                         cg2d_res =    3.26523347257410E-14
(PID.TID 0000.0001) // =======================================================
(PID.TID 0000.0001) // Begin MONITOR dynamic field statistics
(PID.TID 0000.0001) // =======================================================
(PID.TID 0000.0001) %MON time_tsnumber                =                     3
(PID.TID 0000.0001) %MON time_secondsf                =   3.6000000000000E+03
(PID.TID 0000.0001) %MON dynstat_eta_max              =   8.2464323792501E+02
(PID.TID 0000.0001) %MON dynstat_eta_min              =  -5.3368676356697E+02
(PID.TID 0000.0001) %MON dynstat_eta_mean             =  -7.4234478388580E-15
(PID.TID 0000.0001) %MON dynstat_eta_sd               =   4.3546361009661E+02
(PID.TID 0000.0001) %MON dynstat_eta_del2             =   2.5720254475378E+00
(PID.TID 0000.0001) %MON dynstat_uvel_max             =   2.2294211939197E+00
(PID.TID 0000.0001) %MON dynstat_uvel_min             =  -1.8620007243448E-02
(PID.TID 0000.0001) %MON dynstat_uvel_mean            =   6.0431519269313E-01
(PID.TID 0000.0001) %MON dynstat_uvel_sd              =   5.9909584791955E-01
(PID.TID 0000.0001) %MON dynstat_uvel_del2            =   6.1771279765960E-03
(PID.TID 0000.0001) %MON dynstat_vvel_max             =   1.4565248770865E+01
(PID.TID 0000.0001) %MON dynstat_vvel_min             =  -1.4565248772690E+01
(PID.TID 0000.0001) %MON dynstat_vvel_mean            =  -5.8244771734875E-07
(PID.TID 0000.0001) %MON dynstat_vvel_sd              =   5.5335228510052E+00
(PID.TID 0000.0001) %MON dynstat_vvel_del2            =   3.0428140543380E-02
(PID.TID 0000.0001) %MON dynstat_wvel_max             =   3.3342181681220E-01
(PID.TID 0000.0001) %MON dynstat_wvel_min             =  -2.1753228033557E-01
(PID.TID 0000.0001) %MON dynstat_wvel_mean            =   2.1024253866682E-18
(PID.TID 0000.0001) %MON dynstat_wvel_sd              =   1.4266622668649E-01
(PID.TID 0000.0001) %MON dynstat_wvel_del2            =   1.9144044940549E-03
(PID.TID 0000.0001) %MON dynstat_theta_max            =   4.2091730514592E+02
(PID.TID 0000.0001) %MON dynstat_theta_min            =   2.5503234608388E+02
(PID.TID 0000.0001) %MON dynstat_theta_mean           =   3.1876890126519E+02
(PID.TID 0000.0001) %MON dynstat_theta_sd             =   4.5587071521468E+01
(PID.TID 0000.0001) %MON dynstat_theta_del2           =   4.5686614680073E-02
(PID.TID 0000.0001) %MON dynstat_salt_max             =   0.0000000000000E+00
(PID.TID 0000.0001) %MON dynstat_salt_min             =   0.0000000000000E+00
(PID.TID 0000.0001) %MON dynstat_salt_mean            =   0.0000000000000E+00
(PID.TID 0000.0001) %MON dynstat_salt_sd              =   0.0000000000000E+00
(PID.TID 0000.0001) %MON dynstat_salt_del2            =   0.0000000000000E+00
(PID.TID 0000.0001) %MON advcfl_uvel_max              =   8.1415783430612E-07
(PID.TID 0000.0001) %MON advcfl_vvel_max              =   5.5897170133884E-02
(PID.TID 0000.0001) %MON advcfl_wvel_max              =   8.0021236034929E-02
(PID.TID 0000.0001) %MON advcfl_W_hf_max              =   7.9849821643440E-02
(PID.TID 0000.0001) %MON pe_b_mean                    =   9.4814277859186E-01
(PID.TID 0000.0001) %MON ke_max                       =   5.4649248911982E+04
(PID.TID 0000.0001) %MON ke_mean                      =   1.5668955945011E+01
(PID.TID 0000.0001) %MON ke_vol                       =   1.7486817826145E+22
(PID.TID 0000.0001) %MON vort_r_min                   =  -3.0658880973280E-02
(PID.TID 0000.0001) %MON vort_r_max                   =   3.0658947536092E-02
(PID.TID 0000.0001) %MON vort_a_mean                  =   5.2437566749066E-14
(PID.TID 0000.0001) %MON vort_a_sd                    =   9.3006679200939E-05
(PID.TID 0000.0001) %MON vort_p_mean                  =   5.2437557601844E-14
(PID.TID 0000.0001) %MON vort_p_sd                    =   9.3006679200939E-05
(PID.TID 0000.0001) %MON surfExpan_theta_mean         =  -3.1263880405982E+00
(PID.TID 0000.0001) %MON surfExpan_salt_mean          =   0.0000000000000E+00
(PID.TID 0000.0001) %MON surfExpan_Heat_mean          =  -3.1531374445348E+02
(PID.TID 0000.0001) %MON En_Budget_T2PE_mean          =   8.5968281762840E+01
(PID.TID 0000.0001) // =======================================================
(PID.TID 0000.0001) // End MONITOR dynamic field statistics
(PID.TID 0000.0001) // =======================================================
 cg2d: Sum(rhs),rhsMax =  -6.10622663543836E-16  6.00188020663927E+02
(PID.TID 0000.0001)                    cg2d_init_res =    1.63582193935219E+00
(PID.TID 0000.0001)                       cg2d_iters =    18
(PID.TID 0000.0001)                         cg2d_res =    1.85360549804785E-14
(PID.TID 0000.0001) // =======================================================
(PID.TID 0000.0001) // Begin MONITOR dynamic field statistics
(PID.TID 0000.0001) // =======================================================
(PID.TID 0000.0001) %MON time_tsnumber                =                     4
(PID.TID 0000.0001) %MON time_secondsf                =   4.8000000000000E+03
(PID.TID 0000.0001) %MON dynstat_eta_max              =   1.3214623699813E+03
(PID.TID 0000.0001) %MON dynstat_eta_min              =  -8.6541627901311E+02
(PID.TID 0000.0001) %MON dynstat_eta_mean             =  -6.2006240974206E-14
(PID.TID 0000.0001) %MON dynstat_eta_sd               =   7.0179731666824E+02
(PID.TID 0000.0001) %MON dynstat_eta_del2             =   3.1001754066318E+00
(PID.TID 0000.0001) %MON dynstat_uvel_max             =   4.0093965041826E+00
(PID.TID 0000.0001) %MON dynstat_uvel_min             =  -7.2580075435613E-02
(PID.TID 0000.0001) %MON dynstat_uvel_mean            =   1.0932714814425E+00
(PID.TID 0000.0001) %MON dynstat_uvel_sd              =   1.0964636068450E+00
(PID.TID 0000.0001) %MON dynstat_uvel_del2            =   1.0567573543649E-02
(PID.TID 0000.0001) %MON dynstat_vvel_max             =   1.8296281264820E+01
(PID.TID 0000.0001) %MON dynstat_vvel_min             =  -1.8296281273709E+01
(PID.TID 0000.0001) %MON dynstat_vvel_mean            =  -5.3115643576388E-07
(PID.TID 0000.0001) %MON dynstat_vvel_sd              =   7.0706038718781E+00
(PID.TID 0000.0001) %MON dynstat_vvel_del2            =   3.3581231868910E-02
(PID.TID 0000.0001) %MON dynstat_wvel_max             =   4.1437343151540E-01
(PID.TID 0000.0001) %MON dynstat_wvel_min             =  -2.7771168429293E-01
(PID.TID 0000.0001) %MON dynstat_wvel_mean            =   1.5096477857361E-18
(PID.TID 0000.0001) %MON dynstat_wvel_sd              =   1.8057779830912E-01
(PID.TID 0000.0001) %MON dynstat_wvel_del2            =   1.7880803314026E-03
(PID.TID 0000.0001) %MON dynstat_theta_max            =   4.2160298209269E+02
(PID.TID 0000.0001) %MON dynstat_theta_min            =   2.5503268198219E+02
(PID.TID 0000.0001) %MON dynstat_theta_mean           =   3.1882219237531E+02
(PID.TID 0000.0001) %MON dynstat_theta_sd             =   4.5554485536958E+01
(PID.TID 0000.0001) %MON dynstat_theta_del2           =   4.6837024388981E-02
(PID.TID 0000.0001) %MON dynstat_salt_max             =   0.0000000000000E+00
(PID.TID 0000.0001) %MON dynstat_salt_min             =   0.0000000000000E+00
(PID.TID 0000.0001) %MON dynstat_salt_mean            =   0.0000000000000E+00
(PID.TID 0000.0001) %MON dynstat_salt_sd              =   0.0000000000000E+00
(PID.TID 0000.0001) %MON dynstat_salt_del2            =   0.0000000000000E+00
(PID.TID 0000.0001) %MON advcfl_uvel_max              =   1.4930922054253E-06
(PID.TID 0000.0001) %MON advcfl_vvel_max              =   7.0215783000665E-02
(PID.TID 0000.0001) %MON advcfl_wvel_max              =   9.9366640543705E-02
(PID.TID 0000.0001) %MON advcfl_W_hf_max              =   9.9449623563697E-02
(PID.TID 0000.0001) %MON pe_b_mean                    =   2.4625973684137E+00
(PID.TID 0000.0001) %MON ke_max                       =   1.7658678134859E+05
(PID.TID 0000.0001) %MON ke_mean                      =   2.6190557920150E+01
(PID.TID 0000.0001) %MON ke_vol                       =   1.7486817826145E+22
(PID.TID 0000.0001) %MON vort_r_min                   =  -5.5817903681565E-02
(PID.TID 0000.0001) %MON vort_r_max                   =   5.5817620584823E-02
(PID.TID 0000.0001) %MON vort_a_mean                  =   4.9149226153937E-14
(PID.TID 0000.0001) %MON vort_a_sd                    =   1.1052249017785E-04
(PID.TID 0000.0001) %MON vort_p_mean                  =   4.9149224548233E-14
(PID.TID 0000.0001) %MON vort_p_sd                    =   1.1052249017785E-04
(PID.TID 0000.0001) %MON surfExpan_theta_mean         =  -3.9465818098724E+00
(PID.TID 0000.0001) %MON surfExpan_salt_mean          =   0.0000000000000E+00
(PID.TID 0000.0001) %MON surfExpan_Heat_mean          =  -3.9803487990082E+02
(PID.TID 0000.0001) %MON En_Budget_T2PE_mean          =   1.0858604541072E+02
(PID.TID 0000.0001) // =======================================================
(PID.TID 0000.0001) // End MONITOR dynamic field statistics
(PID.TID 0000.0001) // =======================================================
 cg2d: Sum(rhs),rhsMax =  -2.44249065417534E-15  8.71578060599242E+02
(PID.TID 0000.0001)                    cg2d_init_res =    1.31214037596482E+00
(PID.TID 0000.0001)                       cg2d_iters =    17
(PID.TID 0000.0001)                         cg2d_res =    6.51648925491439E-14
(PID.TID 0000.0001) // =======================================================
(PID.TID 0000.0001) // Begin MONITOR dynamic field statistics
(PID.TID 0000.0001) // =======================================================
(PID.TID 0000.0001) %MON time_tsnumber                =                     5
(PID.TID 0000.0001) %MON time_secondsf                =   6.0000000000000E+03
(PID.TID 0000.0001) %MON dynstat_eta_max              =   1.8890983633420E+03
(PID.TID 0000.0001) %MON dynstat_eta_min              =  -1.2560243582834E+03
(PID.TID 0000.0001) %MON dynstat_eta_mean             =  -5.2281887367356E-14
(PID.TID 0000.0001) %MON dynstat_eta_sd               =   1.0127025273636E+03
(PID.TID 0000.0001) %MON dynstat_eta_del2             =   3.6962939619413E+00
(PID.TID 0000.0001) %MON dynstat_uvel_max             =   6.1544675390482E+00
(PID.TID 0000.0001) %MON dynstat_uvel_min             =  -1.8651685946415E-01
(PID.TID 0000.0001) %MON dynstat_uvel_mean            =   1.6817329730776E+00
(PID.TID 0000.0001) %MON dynstat_uvel_sd              =   1.7094970423960E+00
(PID.TID 0000.0001) %MON dynstat_uvel_del2            =   1.5548703339218E-02
(PID.TID 0000.0001) %MON dynstat_vvel_max             =   2.1567476136927E+01
(PID.TID 0000.0001) %MON dynstat_vvel_min             =  -2.1567476153906E+01
(PID.TID 0000.0001) %MON dynstat_vvel_mean            =  -4.7021644893511E-07
(PID.TID 0000.0001) %MON dynstat_vvel_sd              =   8.3873316929440E+00
(PID.TID 0000.0001) %MON dynstat_vvel_del2            =   3.5367060775937E-02
(PID.TID 0000.0001) %MON dynstat_wvel_max             =   4.7516592688639E-01
(PID.TID 0000.0001) %MON dynstat_wvel_min             =  -3.2874760551794E-01
(PID.TID 0000.0001) %MON dynstat_wvel_mean            =  -2.8401799545943E-19
(PID.TID 0000.0001) %MON dynstat_wvel_sd              =   2.1261942075697E-01
(PID.TID 0000.0001) %MON dynstat_wvel_del2            =   1.6156821512714E-03
(PID.TID 0000.0001) %MON dynstat_theta_max            =   4.2224749969091E+02
(PID.TID 0000.0001) %MON dynstat_theta_min            =   2.5503318285662E+02
(PID.TID 0000.0001) %MON dynstat_theta_mean           =   3.1888226702964E+02
(PID.TID 0000.0001) %MON dynstat_theta_sd             =   4.5517529684380E+01
(PID.TID 0000.0001) %MON dynstat_theta_del2           =   4.7263986647367E-02
(PID.TID 0000.0001) %MON dynstat_salt_max             =   0.0000000000000E+00
(PID.TID 0000.0001) %MON dynstat_salt_min             =   0.0000000000000E+00
(PID.TID 0000.0001) %MON dynstat_salt_mean            =   0.0000000000000E+00
(PID.TID 0000.0001) %MON dynstat_salt_sd              =   0.0000000000000E+00
(PID.TID 0000.0001) %MON dynstat_salt_del2            =   0.0000000000000E+00
(PID.TID 0000.0001) %MON advcfl_uvel_max              =   2.3236056563217E-06
(PID.TID 0000.0001) %MON advcfl_vvel_max              =   8.2769673401928E-02
(PID.TID 0000.0001) %MON advcfl_wvel_max              =   1.1353004335358E-01
(PID.TID 0000.0001) %MON advcfl_W_hf_max              =   1.1403982245273E-01
(PID.TID 0000.0001) %MON pe_b_mean                    =   5.1278320446430E+00
(PID.TID 0000.0001) %MON ke_max                       =   4.1593071820704E+05
(PID.TID 0000.0001) %MON ke_mean                      =   3.8042195054347E+01
(PID.TID 0000.0001) %MON ke_vol                       =   1.7486817826145E+22
(PID.TID 0000.0001) %MON vort_r_min                   =  -8.6227986406864E-02
(PID.TID 0000.0001) %MON vort_r_max                   =   8.6227715472923E-02
(PID.TID 0000.0001) %MON vort_a_mean                  =   4.8867116553052E-14
(PID.TID 0000.0001) %MON vort_a_sd                    =   1.3862106432316E-04
(PID.TID 0000.0001) %MON vort_p_mean                  =   4.8867111881349E-14
(PID.TID 0000.0001) %MON vort_p_sd                    =   1.3862106432316E-04
(PID.TID 0000.0001) %MON surfExpan_theta_mean         =  -4.6074924710196E+00
(PID.TID 0000.0001) %MON surfExpan_salt_mean          =   0.0000000000000E+00
(PID.TID 0000.0001) %MON surfExpan_Heat_mean          =  -4.6469142176620E+02
(PID.TID 0000.0001) %MON En_Budget_T2PE_mean          =   1.2705884772766E+02
(PID.TID 0000.0001) // =======================================================
(PID.TID 0000.0001) // End MONITOR dynamic field statistics
(PID.TID 0000.0001) // =======================================================
 cg2d: Sum(rhs),rhsMax =   2.07472927726826E-15  1.17463757356403E+03
(PID.TID 0000.0001)                    cg2d_init_res =    1.07483846109988E+00
(PID.TID 0000.0001)                       cg2d_iters =    17
(PID.TID 0000.0001)                         cg2d_res =    4.83623190428676E-14
(PID.TID 0000.0001) // =======================================================
(PID.TID 0000.0001) // Begin MONITOR dynamic field statistics
(PID.TID 0000.0001) // =======================================================
(PID.TID 0000.0001) %MON time_tsnumber                =                     6
(PID.TID 0000.0001) %MON time_secondsf                =   7.2000000000000E+03
(PID.TID 0000.0001) %MON dynstat_eta_max              =   2.4998532817306E+03
(PID.TID 0000.0001) %MON dynstat_eta_min              =  -1.6915056490683E+03
(PID.TID 0000.0001) %MON dynstat_eta_mean             =  -9.2639528592671E-14
(PID.TID 0000.0001) %MON dynstat_eta_sd               =   1.3563938964316E+03
(PID.TID 0000.0001) %MON dynstat_eta_del2             =   4.2695677923903E+00
(PID.TID 0000.0001) %MON dynstat_uvel_max             =   8.6004656599157E+00
(PID.TID 0000.0001) %MON dynstat_uvel_min             =  -3.6890561832053E-01
(PID.TID 0000.0001) %MON dynstat_uvel_mean            =   2.3473621138213E+00
(PID.TID 0000.0001) %MON dynstat_uvel_sd              =   2.4231951535332E+00
(PID.TID 0000.0001) %MON dynstat_uvel_del2            =   2.0771488326397E-02
(PID.TID 0000.0001) %MON dynstat_vvel_max             =   2.4351166815467E+01
(PID.TID 0000.0001) %MON dynstat_vvel_min             =  -2.4351166865622E+01
(PID.TID 0000.0001) %MON dynstat_vvel_mean            =  -4.0227877232236E-07
(PID.TID 0000.0001) %MON dynstat_vvel_sd              =   9.4576612660489E+00
(PID.TID 0000.0001) %MON dynstat_vvel_del2            =   3.6061424146498E-02
(PID.TID 0000.0001) %MON dynstat_wvel_max             =   5.1345769842438E-01
(PID.TID 0000.0001) %MON dynstat_wvel_min             =  -3.6907331894019E-01
(PID.TID 0000.0001) %MON dynstat_wvel_mean            =   1.3917607227444E-18
(PID.TID 0000.0001) %MON dynstat_wvel_sd              =   2.3810218097265E-01
(PID.TID 0000.0001) %MON dynstat_wvel_del2            =   1.4839442445769E-03
(PID.TID 0000.0001) %MON dynstat_theta_max            =   4.2283844408209E+02
(PID.TID 0000.0001) %MON dynstat_theta_min            =   2.5503397811028E+02
(PID.TID 0000.0001) %MON dynstat_theta_mean           =   3.1894682973942E+02
(PID.TID 0000.0001) %MON dynstat_theta_sd             =   4.5477572000989E+01
(PID.TID 0000.0001) %MON dynstat_theta_del2           =   4.7260283061994E-02
(PID.TID 0000.0001) %MON dynstat_salt_max             =   0.0000000000000E+00
(PID.TID 0000.0001) %MON dynstat_salt_min             =   0.0000000000000E+00
(PID.TID 0000.0001) %MON dynstat_salt_mean            =   0.0000000000000E+00
(PID.TID 0000.0001) %MON dynstat_salt_sd              =   0.0000000000000E+00
(PID.TID 0000.0001) %MON dynstat_salt_del2            =   0.0000000000000E+00
(PID.TID 0000.0001) %MON advcfl_uvel_max              =   3.2767525255552E-06
(PID.TID 0000.0001) %MON advcfl_vvel_max              =   9.3452665209433E-02
(PID.TID 0000.0001) %MON advcfl_wvel_max              =   1.2215337699724E-01
(PID.TID 0000.0001) %MON advcfl_W_hf_max              =   1.2322984762185E-01
(PID.TID 0000.0001) %MON pe_b_mean                    =   9.1990220113839E+00
(PID.TID 0000.0001) %MON ke_max                       =   8.1208791473463E+05
(PID.TID 0000.0001) %MON ke_mean                      =   5.0406260774734E+01
(PID.TID 0000.0001) %MON ke_vol                       =   1.7486817826145E+22
(PID.TID 0000.0001) %MON vort_r_min                   =  -1.2071180001551E-01
(PID.TID 0000.0001) %MON vort_r_max                   =   1.2071168223456E-01
(PID.TID 0000.0001) %MON vort_a_mean                  =   5.2839115106703E-14
(PID.TID 0000.0001) %MON vort_a_sd                    =   1.7554367220222E-04
(PID.TID 0000.0001) %MON vort_p_mean                  =   5.2839105406383E-14
(PID.TID 0000.0001) %MON vort_p_sd                    =   1.7554367220222E-04
(PID.TID 0000.0001) %MON surfExpan_theta_mean         =  -5.0893905634401E+00
(PID.TID 0000.0001) %MON surfExpan_salt_mean          =   0.0000000000000E+00
(PID.TID 0000.0001) %MON surfExpan_Heat_mean          =  -5.1329354344557E+02
(PID.TID 0000.0001) %MON En_Budget_T2PE_mean          =   1.4099763345423E+02
(PID.TID 0000.0001) // =======================================================
(PID.TID 0000.0001) // End MONITOR dynamic field statistics
(PID.TID 0000.0001) // =======================================================
 cg2d: Sum(rhs),rhsMax =   1.09634523681734E-15  1.49858166122902E+03
(PID.TID 0000.0001)                    cg2d_init_res =    8.91221148123627E-01
(PID.TID 0000.0001)                       cg2d_iters =    17
(PID.TID 0000.0001)                         cg2d_res =    3.35316303387645E-14
(PID.TID 0000.0001) // =======================================================
(PID.TID 0000.0001) // Begin MONITOR dynamic field statistics
(PID.TID 0000.0001) // =======================================================
(PID.TID 0000.0001) %MON time_tsnumber                =                     7
(PID.TID 0000.0001) %MON time_secondsf                =   8.4000000000000E+03
(PID.TID 0000.0001) %MON dynstat_eta_max              =   3.1263628033572E+03
(PID.TID 0000.0001) %MON dynstat_eta_min              =  -2.1561100330420E+03
(PID.TID 0000.0001) %MON dynstat_eta_mean             =  -1.8981850402977E-14
(PID.TID 0000.0001) %MON dynstat_eta_sd               =   1.7201580716290E+03
(PID.TID 0000.0001) %MON dynstat_eta_del2             =   5.1193898137225E+00
(PID.TID 0000.0001) %MON dynstat_uvel_max             =   1.1278497153525E+01
(PID.TID 0000.0001) %MON dynstat_uvel_min             =  -6.3493936785759E-01
(PID.TID 0000.0001) %MON dynstat_uvel_mean            =   3.0654515714815E+00
(PID.TID 0000.0001) %MON dynstat_uvel_sd              =   3.2201769512705E+00
(PID.TID 0000.0001) %MON dynstat_uvel_del2            =   2.6015849087453E-02
(PID.TID 0000.0001) %MON dynstat_vvel_max             =   2.6475554239387E+01
(PID.TID 0000.0001) %MON dynstat_vvel_min             =  -2.6475554363116E+01
(PID.TID 0000.0001) %MON dynstat_vvel_mean            =  -3.2914334749676E-07
(PID.TID 0000.0001) %MON dynstat_vvel_sd              =   1.0265791474331E+01
(PID.TID 0000.0001) %MON dynstat_vvel_del2            =   3.6541325886782E-02
(PID.TID 0000.0001) %MON dynstat_wvel_max             =   5.2928545231603E-01
(PID.TID 0000.0001) %MON dynstat_wvel_min             =  -3.9736250592780E-01
(PID.TID 0000.0001) %MON dynstat_wvel_mean            =   5.8939001056176E-18
(PID.TID 0000.0001) %MON dynstat_wvel_sd              =   2.5652802587552E-01
(PID.TID 0000.0001) %MON dynstat_wvel_del2            =   1.4149623644927E-03
(PID.TID 0000.0001) %MON dynstat_theta_max            =   4.2350902294240E+02
(PID.TID 0000.0001) %MON dynstat_theta_min            =   2.5503518068438E+02
(PID.TID 0000.0001) %MON dynstat_theta_mean           =   3.1901347423593E+02
(PID.TID 0000.0001) %MON dynstat_theta_sd             =   4.5436085625053E+01
(PID.TID 0000.0001) %MON dynstat_theta_del2           =   4.7000357759366E-02
(PID.TID 0000.0001) %MON dynstat_salt_max             =   0.0000000000000E+00
(PID.TID 0000.0001) %MON dynstat_salt_min             =   0.0000000000000E+00
(PID.TID 0000.0001) %MON dynstat_salt_mean            =   0.0000000000000E+00
(PID.TID 0000.0001) %MON dynstat_salt_sd              =   0.0000000000000E+00
(PID.TID 0000.0001) %MON dynstat_salt_del2            =   0.0000000000000E+00
(PID.TID 0000.0001) %MON advcfl_uvel_max              =   4.3183412797967E-06
(PID.TID 0000.0001) %MON advcfl_vvel_max              =   1.0160544386986E-01
(PID.TID 0000.0001) %MON advcfl_wvel_max              =   1.2530402623938E-01
(PID.TID 0000.0001) %MON advcfl_W_hf_max              =   1.2702850855585E-01
(PID.TID 0000.0001) %MON pe_b_mean                    =   1.4794718956952E+01
(PID.TID 0000.0001) %MON ke_max                       =   1.3964166309937E+06
(PID.TID 0000.0001) %MON ke_mean                      =   6.2566915001089E+01
(PID.TID 0000.0001) %MON ke_vol                       =   1.7486817826145E+22
(PID.TID 0000.0001) %MON vort_r_min                   =  -1.5794866870267E-01
(PID.TID 0000.0001) %MON vort_r_max                   =   1.5794869072677E-01
(PID.TID 0000.0001) %MON vort_a_mean                  =   5.9841024963566E-14
(PID.TID 0000.0001) %MON vort_a_sd                    =   2.1895749855748E-04
(PID.TID 0000.0001) %MON vort_p_mean                  =   5.9841027601233E-14
(PID.TID 0000.0001) %MON vort_p_sd                    =   2.1895749855748E-04
(PID.TID 0000.0001) %MON surfExpan_theta_mean         =  -5.3791303141322E+00
(PID.TID 0000.0001) %MON surfExpan_salt_mean          =   0.0000000000000E+00
(PID.TID 0000.0001) %MON surfExpan_Heat_mean          =  -5.4251542010368E+02
(PID.TID 0000.0001) %MON En_Budget_T2PE_mean          =   1.5020527522387E+02
(PID.TID 0000.0001) // =======================================================
(PID.TID 0000.0001) // End MONITOR dynamic field statistics
(PID.TID 0000.0001) // =======================================================
 cg2d: Sum(rhs),rhsMax =   1.10328413072125E-15  1.83164888972626E+03
(PID.TID 0000.0001)                    cg2d_init_res =    7.43136348680043E-01
(PID.TID 0000.0001)                       cg2d_iters =    17
(PID.TID 0000.0001)                         cg2d_res =    1.98946353093964E-14
(PID.TID 0000.0001) // =======================================================
(PID.TID 0000.0001) // Begin MONITOR dynamic field statistics
(PID.TID 0000.0001) // =======================================================
(PID.TID 0000.0001) %MON time_tsnumber                =                     8
(PID.TID 0000.0001) %MON time_secondsf                =   9.6000000000000E+03
(PID.TID 0000.0001) %MON dynstat_eta_max              =   3.7435579668185E+03
(PID.TID 0000.0001) %MON dynstat_eta_min              =  -2.6328837632321E+03
(PID.TID 0000.0001) %MON dynstat_eta_mean             =  -5.1783043032914E-14
(PID.TID 0000.0001) %MON dynstat_eta_sd               =   2.0907968838766E+03
(PID.TID 0000.0001) %MON dynstat_eta_del2             =   5.9697930149301E+00
(PID.TID 0000.0001) %MON dynstat_uvel_max             =   1.4117347642163E+01
(PID.TID 0000.0001) %MON dynstat_uvel_min             =  -1.0001353721131E+00
(PID.TID 0000.0001) %MON dynstat_uvel_mean            =   3.8097552197543E+00
(PID.TID 0000.0001) %MON dynstat_uvel_sd              =   4.0811550032285E+00
(PID.TID 0000.0001) %MON dynstat_uvel_del2            =   3.1304351726660E-02
(PID.TID 0000.0001) %MON dynstat_vvel_max             =   2.7915329833996E+01
(PID.TID 0000.0001) %MON dynstat_vvel_min             =  -2.7915330095807E+01
(PID.TID 0000.0001) %MON dynstat_vvel_mean            =  -2.5407724841465E-07
(PID.TID 0000.0001) %MON dynstat_vvel_sd              =   1.0807280639493E+01
(PID.TID 0000.0001) %MON dynstat_vvel_del2            =   3.6943860112846E-02
(PID.TID 0000.0001) %MON dynstat_wvel_max             =   5.2423565318020E-01
(PID.TID 0000.0001) %MON dynstat_wvel_min             =  -4.1270451755774E-01
(PID.TID 0000.0001) %MON dynstat_wvel_mean            =   2.8498745158754E-18
(PID.TID 0000.0001) %MON dynstat_wvel_sd              =   2.6764379498399E-01
(PID.TID 0000.0001) %MON dynstat_wvel_del2            =   1.3820095401401E-03
(PID.TID 0000.0001) %MON dynstat_theta_max            =   4.2420420404298E+02
(PID.TID 0000.0001) %MON dynstat_theta_min            =   2.5503684635594E+02
(PID.TID 0000.0001) %MON dynstat_theta_mean           =   3.1907976968351E+02
(PID.TID 0000.0001) %MON dynstat_theta_sd             =   4.5394600159745E+01
(PID.TID 0000.0001) %MON dynstat_theta_del2           =   4.7163748880384E-02
(PID.TID 0000.0001) %MON dynstat_salt_max             =   0.0000000000000E+00
(PID.TID 0000.0001) %MON dynstat_salt_min             =   0.0000000000000E+00
(PID.TID 0000.0001) %MON dynstat_salt_mean            =   0.0000000000000E+00
(PID.TID 0000.0001) %MON dynstat_salt_sd              =   0.0000000000000E+00
(PID.TID 0000.0001) %MON dynstat_salt_del2            =   0.0000000000000E+00
(PID.TID 0000.0001) %MON advcfl_uvel_max              =   5.4108461119829E-06
(PID.TID 0000.0001) %MON advcfl_vvel_max              =   1.0713088255895E-01
(PID.TID 0000.0001) %MON advcfl_wvel_max              =   1.2344101420447E-01
(PID.TID 0000.0001) %MON advcfl_W_hf_max              =   1.2581655676325E-01
(PID.TID 0000.0001) %MON pe_b_mean                    =   2.1857158048141E+01
(PID.TID 0000.0001) %MON ke_max                       =   2.1877091813987E+06
(PID.TID 0000.0001) %MON ke_mean                      =   7.3973525954138E+01
(PID.TID 0000.0001) %MON ke_vol                       =   1.7486817826145E+22
(PID.TID 0000.0001) %MON vort_r_min                   =  -1.9654774277861E-01
(PID.TID 0000.0001) %MON vort_r_max                   =   1.9654784698572E-01
(PID.TID 0000.0001) %MON vort_a_mean                  =   6.8852347201753E-14
(PID.TID 0000.0001) %MON vort_a_sd                    =   2.6670430353622E-04
(PID.TID 0000.0001) %MON vort_p_mean                  =   6.8852336008236E-14
(PID.TID 0000.0001) %MON vort_p_sd                    =   2.6670430353622E-04
(PID.TID 0000.0001) %MON surfExpan_theta_mean         =  -5.4704833506305E+00
(PID.TID 0000.0001) %MON surfExpan_salt_mean          =   0.0000000000000E+00
(PID.TID 0000.0001) %MON surfExpan_Heat_mean          =  -5.5172888549295E+02
(PID.TID 0000.0001) %MON En_Budget_T2PE_mean          =   1.5467270389054E+02
(PID.TID 0000.0001) // =======================================================
(PID.TID 0000.0001) // End MONITOR dynamic field statistics
(PID.TID 0000.0001) // =======================================================
 cg2d: Sum(rhs),rhsMax =   1.29757316003065E-15  2.16161545410164E+03
(PID.TID 0000.0001)                    cg2d_init_res =    6.19717394337601E-01
(PID.TID 0000.0001)                       cg2d_iters =    17
(PID.TID 0000.0001)                         cg2d_res =    1.77780454649604E-14
(PID.TID 0000.0001) // =======================================================
(PID.TID 0000.0001) // Begin MONITOR dynamic field statistics
(PID.TID 0000.0001) // =======================================================
(PID.TID 0000.0001) %MON time_tsnumber                =                     9
(PID.TID 0000.0001) %MON time_secondsf                =   1.0800000000000E+04
(PID.TID 0000.0001) %MON dynstat_eta_max              =   4.3299065716362E+03
(PID.TID 0000.0001) %MON dynstat_eta_min              =  -3.1044711493802E+03
(PID.TID 0000.0001) %MON dynstat_eta_mean             =   1.6923259276913E-13
(PID.TID 0000.0001) %MON dynstat_eta_sd               =   2.4550951218213E+03
(PID.TID 0000.0001) %MON dynstat_eta_del2             =   6.8144287778721E+00
(PID.TID 0000.0001) %MON dynstat_uvel_max             =   1.7045337062856E+01
(PID.TID 0000.0001) %MON dynstat_uvel_min             =  -1.4793090106790E+00
(PID.TID 0000.0001) %MON dynstat_uvel_mean            =   4.5533559957988E+00
(PID.TID 0000.0001) %MON dynstat_uvel_sd              =   4.9855340509437E+00
(PID.TID 0000.0001) %MON dynstat_uvel_del2            =   3.6655865757142E-02
(PID.TID 0000.0001) %MON dynstat_vvel_max             =   2.8780894232186E+01
(PID.TID 0000.0001) %MON dynstat_vvel_min             =  -2.8780894547610E+01
(PID.TID 0000.0001) %MON dynstat_vvel_mean            =  -1.8067880429374E-07
(PID.TID 0000.0001) %MON dynstat_vvel_sd              =   1.1089991664173E+01
(PID.TID 0000.0001) %MON dynstat_vvel_del2            =   3.7450613031550E-02
(PID.TID 0000.0001) %MON dynstat_wvel_max             =   5.0136747632859E-01
(PID.TID 0000.0001) %MON dynstat_wvel_min             =  -4.2656620905363E-01
(PID.TID 0000.0001) %MON dynstat_wvel_mean            =   3.0395733943512E-18
(PID.TID 0000.0001) %MON dynstat_wvel_sd              =   2.7148172712898E-01
(PID.TID 0000.0001) %MON dynstat_wvel_del2            =   1.3680059158709E-03
(PID.TID 0000.0001) %MON dynstat_theta_max            =   4.2484926064054E+02
(PID.TID 0000.0001) %MON dynstat_theta_min            =   2.5503894752042E+02
(PID.TID 0000.0001) %MON dynstat_theta_mean           =   3.1914334680553E+02
(PID.TID 0000.0001) %MON dynstat_theta_sd             =   4.5354647388037E+01
(PID.TID 0000.0001) %MON dynstat_theta_del2           =   4.7210107755056E-02
(PID.TID 0000.0001) %MON dynstat_salt_max             =   0.0000000000000E+00
(PID.TID 0000.0001) %MON dynstat_salt_min             =   0.0000000000000E+00
(PID.TID 0000.0001) %MON dynstat_salt_mean            =   0.0000000000000E+00
(PID.TID 0000.0001) %MON dynstat_salt_sd              =   0.0000000000000E+00
(PID.TID 0000.0001) %MON dynstat_salt_del2            =   0.0000000000000E+00
(PID.TID 0000.0001) %MON advcfl_uvel_max              =   6.5155238719462E-06
(PID.TID 0000.0001) %MON advcfl_vvel_max              =   1.1045266608488E-01
(PID.TID 0000.0001) %MON advcfl_wvel_max              =   1.1781822382362E-01
(PID.TID 0000.0001) %MON advcfl_W_hf_max              =   1.2032819431886E-01
(PID.TID 0000.0001) %MON pe_b_mean                    =   3.0137460285953E+01
(PID.TID 0000.0001) %MON ke_max                       =   3.1891515701020E+06
(PID.TID 0000.0001) %MON ke_mean                      =   8.4278198199974E+01
(PID.TID 0000.0001) %MON ke_vol                       =   1.7486817826145E+22
(PID.TID 0000.0001) %MON vort_r_min                   =  -2.3511497955421E-01
(PID.TID 0000.0001) %MON vort_r_max                   =   2.3511511318090E-01
(PID.TID 0000.0001) %MON vort_a_mean                  =   7.9154689551217E-14
(PID.TID 0000.0001) %MON vort_a_sd                    =   3.1686516717944E-04
(PID.TID 0000.0001) %MON vort_p_mean                  =   7.9154693168236E-14
(PID.TID 0000.0001) %MON vort_p_sd                    =   3.1686516717944E-04
(PID.TID 0000.0001) %MON surfExpan_theta_mean         =  -5.3642578956993E+00
(PID.TID 0000.0001) %MON surfExpan_salt_mean          =   0.0000000000000E+00
(PID.TID 0000.0001) %MON surfExpan_Heat_mean          =  -5.4101545340593E+02
(PID.TID 0000.0001) %MON En_Budget_T2PE_mean          =   1.5456344868462E+02
(PID.TID 0000.0001) // =======================================================
(PID.TID 0000.0001) // End MONITOR dynamic field statistics
(PID.TID 0000.0001) // =======================================================
 cg2d: Sum(rhs),rhsMax =  -2.94902990916057E-15  2.47650463658181E+03
(PID.TID 0000.0001)                    cg2d_init_res =    5.13984248722280E-01
(PID.TID 0000.0001)                       cg2d_iters =    17
(PID.TID 0000.0001)                         cg2d_res =    1.79153576841976E-14
(PID.TID 0000.0001) // =======================================================
(PID.TID 0000.0001) // Begin MONITOR dynamic field statistics
(PID.TID 0000.0001) // =======================================================
(PID.TID 0000.0001) %MON time_tsnumber                =                    10
(PID.TID 0000.0001) %MON time_secondsf                =   1.2000000000000E+04
(PID.TID 0000.0001) %MON dynstat_eta_max              =   4.8675461505631E+03
(PID.TID 0000.0001) %MON dynstat_eta_min              =  -3.5540859459787E+03
(PID.TID 0000.0001) %MON dynstat_eta_mean             =   4.3257379788622E-14
(PID.TID 0000.0001) %MON dynstat_eta_sd               =   2.8002960052048E+03
(PID.TID 0000.0001) %MON dynstat_eta_del2             =   7.6443059873589E+00
(PID.TID 0000.0001) %MON dynstat_uvel_max             =   1.9991772299445E+01
(PID.TID 0000.0001) %MON dynstat_uvel_min             =  -2.0855474163519E+00
(PID.TID 0000.0001) %MON dynstat_uvel_mean            =   5.2695864321501E+00
(PID.TID 0000.0001) %MON dynstat_uvel_sd              =   5.9121510184264E+00
(PID.TID 0000.0001) %MON dynstat_uvel_del2            =   4.1814115474041E-02
(PID.TID 0000.0001) %MON dynstat_vvel_max             =   2.9178771848175E+01
(PID.TID 0000.0001) %MON dynstat_vvel_min             =  -2.9178772391098E+01
(PID.TID 0000.0001) %MON dynstat_vvel_mean            =  -1.1220153539775E-07
(PID.TID 0000.0001) %MON dynstat_vvel_sd              =   1.1134788221504E+01
(PID.TID 0000.0001) %MON dynstat_vvel_del2            =   3.8286360391771E-02
(PID.TID 0000.0001) %MON dynstat_wvel_max             =   4.7179014874859E-01
(PID.TID 0000.0001) %MON dynstat_wvel_min             =  -4.3072886966499E-01
(PID.TID 0000.0001) %MON dynstat_wvel_mean            =   7.2891084060037E-18
(PID.TID 0000.0001) %MON dynstat_wvel_sd              =   2.6838408033977E-01
(PID.TID 0000.0001) %MON dynstat_wvel_del2            =   1.3996334737881E-03
(PID.TID 0000.0001) %MON dynstat_theta_max            =   4.2545066046778E+02
(PID.TID 0000.0001) %MON dynstat_theta_min            =   2.5504136618430E+02
(PID.TID 0000.0001) %MON dynstat_theta_mean           =   3.1920198073838E+02
(PID.TID 0000.0001) %MON dynstat_theta_sd             =   4.5317702210516E+01
(PID.TID 0000.0001) %MON dynstat_theta_del2           =   4.6966628563136E-02
(PID.TID 0000.0001) %MON dynstat_salt_max             =   0.0000000000000E+00
(PID.TID 0000.0001) %MON dynstat_salt_min             =   0.0000000000000E+00
(PID.TID 0000.0001) %MON dynstat_salt_mean            =   0.0000000000000E+00
(PID.TID 0000.0001) %MON dynstat_salt_sd              =   0.0000000000000E+00
(PID.TID 0000.0001) %MON dynstat_salt_del2            =   0.0000000000000E+00
(PID.TID 0000.0001) %MON advcfl_uvel_max              =   7.5941975380487E-06
(PID.TID 0000.0001) %MON advcfl_vvel_max              =   1.1197960502407E-01
(PID.TID 0000.0001) %MON advcfl_wvel_max              =   1.1035744401265E-01
(PID.TID 0000.0001) %MON advcfl_W_hf_max              =   1.1322963569966E-01
(PID.TID 0000.0001) %MON pe_b_mean                    =   3.9208288583831E+01
(PID.TID 0000.0001) %MON ke_max                       =   4.3868531038822E+06
(PID.TID 0000.0001) %MON ke_mean                      =   9.3343490319631E+01
(PID.TID 0000.0001) %MON ke_vol                       =   1.7486817826145E+22
(PID.TID 0000.0001) %MON vort_r_min                   =  -2.7229857851918E-01
(PID.TID 0000.0001) %MON vort_r_max                   =   2.7229870313275E-01
(PID.TID 0000.0001) %MON vort_a_mean                  =   9.0096376650761E-14
(PID.TID 0000.0001) %MON vort_a_sd                    =   3.6770372080391E-04
(PID.TID 0000.0001) %MON vort_p_mean                  =   9.0096379218556E-14
(PID.TID 0000.0001) %MON vort_p_sd                    =   3.6770372080391E-04
(PID.TID 0000.0001) %MON surfExpan_theta_mean         =  -5.0681770679842E+00
(PID.TID 0000.0001) %MON surfExpan_salt_mean          =   0.0000000000000E+00
(PID.TID 0000.0001) %MON surfExpan_Heat_mean          =  -5.1115404361436E+02
(PID.TID 0000.0001) %MON En_Budget_T2PE_mean          =   1.5018886124688E+02
(PID.TID 0000.0001) // =======================================================
(PID.TID 0000.0001) // End MONITOR dynamic field statistics
(PID.TID 0000.0001) // =======================================================
objf_test       314.8    1   31    1 TILE     1   31    1    1
objf_test       629.6    2   31    1 TILE     2   31    1    1
objf_test       944.7    1   32    1 TILE     1   32    1    1
objf_test      1259.8    2   32    1 TILE     2   32    1    1
objf_test      1574.9    1   33    1 TILE     1   33    1    1
objf_test      1890.0    2   33    1 TILE     2   33    1    1
objf_test      2204.8    1   34    1 TILE     1   34    1    1
objf_test      2519.6    2   34    1 TILE     2   34    1    1
objf_test      2833.8    1   35    1 TILE     1   35    1    1
objf_test      3148.0    2   35    1 TILE     2   35    1    1
objf_test      3461.4    1   36    1 TILE     1   36    1    1
objf_test      3774.8    2   36    1 TILE     2   36    1    1
objf_test      4087.0    1   37    1 TILE     1   37    1    1
objf_test      4399.2    2   37    1 TILE     2   37    1    1
objf_test      4710.1    1   38    1 TILE     1   38    1    1
objf_test      5020.9    2   38    1 TILE     2   38    1    1
objf_test      5330.1    1   39    1 TILE     1   39    1    1
objf_test      5639.3    2   39    1 TILE     2   39    1    1
  --> objf_test(bi,bj)   =  626.587786
  --> objf_tracer(bi,bj) =  0.
  --> objf_atl(bi,bj)    =  0.
  local fc =   626.587786
  global fc =   626.587786
(PID.TID 0000.0001)  MDSREADFIELD: opening file: xx_theta.0000000000.001.001.data
 grad-res -------------------------------
 grad-res     0    1    1    1    1   0.626587786E+03 0.626587786E+03 0.626587786E+03
 grad-res     0    1    1    1    0   0.153706239E-07 0.153647761E-07 0.380455061E-03
(PID.TID 0000.0001)       precision_grdchk_result TLM     6.26587786180309E+02     1.53706239497511E-08
 ph-grd  ierr ---------------------------
 ph-grd  ierr =  0, icomp =  1, ichknum =  1
(PID.TID 0000.0001)  MDSREADFIELD: opening file: g_xx_theta.0000000000.001.001.data
(PID.TID 0000.0001)  MDSREADFIELD: opening file: g_xx_theta.0000000000.001.001.data
(PID.TID 0000.0001) %MON En_BudgetfCori_max           =   1.4540029928789E-04
(PID.TID 0000.0001) %MON En_BudgetfCori_min           =  -1.4540029928789E-04
(PID.TID 0000.0001) %MON En_BudgetfCori_mean          =   0.0000000000000E+00
(PID.TID 0000.0001) %MON En_BudgetfCori_sd            =   1.0284451245737E-04
(PID.TID 0000.0001) %MON En_BudgetfCoriG_max          =   1.4526891053949E-04
(PID.TID 0000.0001) %MON En_BudgetfCoriG_min          =  -1.4544410433286E-04
(PID.TID 0000.0001) %MON En_BudgetfCoriG_mean         =  -2.3086365767121E-06
(PID.TID 0000.0001) %MON En_BudgetfCoriG_sd           =   1.0363181330709E-04
(PID.TID 0000.0001) %MON En_BudgetfCoriCos_max        =   1.4540029928789E-04
(PID.TID 0000.0001) %MON En_BudgetfCoriCos_min        =   3.5693770017430E-06
(PID.TID 0000.0001) %MON En_BudgetfCoriCos_mean       =   9.2601889431869E-05
(PID.TID 0000.0001) %MON En_BudgetfCoriCos_sd         =   4.4742416298653E-05
(PID.TID 0000.0001) // CG2D normalisation factor =          0.2278126663032464164969763E-09
(PID.TID 0000.0001) 
(PID.TID 0000.0001) // =======================================================
(PID.TID 0000.0001) // Field Initial Temperature at iteration          1
(PID.TID 0000.0001) // CMIN =          2.550364452389422E+02
(PID.TID 0000.0001) // CMAX =          3.154764877049333E+02
(PID.TID 0000.0001) // CINT =          2.238520091333006E+00
(PID.TID 0000.0001) // SYMBOLS (CMIN->CMAX): -abcdefghijklmnopqrstuvwxyz+
(PID.TID 0000.0001) //                  0.0: .
(PID.TID 0000.0001) // RANGE I (Lo:Hi:Step):(   1:   2:   1)
(PID.TID 0000.0001) // RANGE J (Lo:Hi:Step):(  64:   1:  -1)
(PID.TID 0000.0001) // RANGE K (Lo:Hi:Step):(   1:   1:   1)
(PID.TID 0000.0001) // =======================================================
(PID.TID 0000.0001) K =   1
(PID.TID 0000.0001) 
(PID.TID 0000.0001) |--J--|12
(PID.TID 0000.0001)     64 --
(PID.TID 0000.0001)     63 --
(PID.TID 0000.0001)     62 --
(PID.TID 0000.0001)     61 aa
(PID.TID 0000.0001)     60 aa
(PID.TID 0000.0001)     59 bb
(PID.TID 0000.0001)     58 cc
(PID.TID 0000.0001)     57 cc
(PID.TID 0000.0001)     56 dd
(PID.TID 0000.0001)     55 ee
(PID.TID 0000.0001)     54 gg
(PID.TID 0000.0001)     53 hh
(PID.TID 0000.0001)     52 ii
(PID.TID 0000.0001)     51 jj
(PID.TID 0000.0001)     50 ll
(PID.TID 0000.0001)     49 mm
(PID.TID 0000.0001)     48 nn
(PID.TID 0000.0001)     47 oo
(PID.TID 0000.0001)     46 qq
(PID.TID 0000.0001)     45 rr
(PID.TID 0000.0001)     44 ss
(PID.TID 0000.0001)     43 tt
(PID.TID 0000.0001)     42 vv
(PID.TID 0000.0001)     41 ww
(PID.TID 0000.0001)     40 xx
(PID.TID 0000.0001)     39 xx
(PID.TID 0000.0001)     38 yy
(PID.TID 0000.0001)     37 zz
(PID.TID 0000.0001)     36 zz
(PID.TID 0000.0001)     35 ++
(PID.TID 0000.0001)     34 ++
(PID.TID 0000.0001)     33 ++
(PID.TID 0000.0001)     32 ++
(PID.TID 0000.0001)     31 ++
(PID.TID 0000.0001)     30 ++
(PID.TID 0000.0001)     29 zz
(PID.TID 0000.0001)     28 zz
(PID.TID 0000.0001)     27 yy
(PID.TID 0000.0001)     26 xx
(PID.TID 0000.0001)     25 xx
(PID.TID 0000.0001)     24 ww
(PID.TID 0000.0001)     23 vv
(PID.TID 0000.0001)     22 tt
(PID.TID 0000.0001)     21 ss
(PID.TID 0000.0001)     20 rr
(PID.TID 0000.0001)     19 qq
(PID.TID 0000.0001)     18 oo
(PID.TID 0000.0001)     17 nn
(PID.TID 0000.0001)     16 mm
(PID.TID 0000.0001)     15 ll
(PID.TID 0000.0001)     14 jj
(PID.TID 0000.0001)     13 ii
(PID.TID 0000.0001)     12 hh
(PID.TID 0000.0001)     11 gg
(PID.TID 0000.0001)     10 ee
(PID.TID 0000.0001)      9 dd
(PID.TID 0000.0001)      8 cc
(PID.TID 0000.0001)      7 cc
(PID.TID 0000.0001)      6 bb
(PID.TID 0000.0001)      5 aa
(PID.TID 0000.0001)      4 aa
(PID.TID 0000.0001)      3 --
(PID.TID 0000.0001)      2 --
(PID.TID 0000.0001)      1 --
(PID.TID 0000.0001) // =======================================================
(PID.TID 0000.0001) // END OF FIELD                                          =
(PID.TID 0000.0001) // =======================================================
(PID.TID 0000.0001) 
(PID.TID 0000.0001) // =======================================================
(PID.TID 0000.0001) // Field Initial Salinity at iteration          1
(PID.TID 0000.0001) // CMIN =          1.000000000000000E+32
(PID.TID 0000.0001) // CMAX =         -1.000000000000000E+32
(PID.TID 0000.0001) // CINT =          0.000000000000000E+00
(PID.TID 0000.0001) // SYMBOLS (CMIN->CMAX): -abcdefghijklmnopqrstuvwxyz+
(PID.TID 0000.0001) //                  0.0: .
(PID.TID 0000.0001) // RANGE I (Lo:Hi:Step):(   1:   2:   1)
(PID.TID 0000.0001) // RANGE J (Lo:Hi:Step):(  64:   1:  -1)
(PID.TID 0000.0001) // RANGE K (Lo:Hi:Step):(   1:   1:   1)
(PID.TID 0000.0001) // =======================================================
(PID.TID 0000.0001) // =======================================================
(PID.TID 0000.0001) // END OF FIELD                                          =
(PID.TID 0000.0001) // =======================================================
(PID.TID 0000.0001) 
(PID.TID 0000.0001) Start initial hydrostatic pressure computation
(PID.TID 0000.0001) Pressure is predetermined for buoyancyRelation ATMOSPHERIC
(PID.TID 0000.0001) 
(PID.TID 0000.0001)  MDSREADFIELD: opening file: xx_theta.0000000000.001.001.data
(PID.TID 0000.0001)  MDSREADFIELD: opening file: g_xx_theta.0000000000.001.001.data
(PID.TID 0000.0001)  MDSREADFIELD: opening file: xx_salt.0000000000.001.001.data
(PID.TID 0000.0001)  MDSREADFIELD: opening file: g_xx_salt.0000000000.001.001.data
(PID.TID 0000.0001)  MDSREADFIELD: opening file: xx_diffkr.0000000000.001.001.data
(PID.TID 0000.0001)  MDSREADFIELD: opening file: g_xx_diffkr.0000000000.001.001.data
(PID.TID 0000.0001) // =======================================================
(PID.TID 0000.0001) // Model current state
(PID.TID 0000.0001) // =======================================================
(PID.TID 0000.0001) 
 cg2d: Sum(rhs),rhsMax =  -2.49800180540660E-16  8.15571950272472E-01
 cg2d: Sum(rhs),rhsMax =  -2.08166817117217E-15  8.97359314695382E+01
 cg2d: Sum(rhs),rhsMax =  -4.07608530940227E-14  1.16454862818529E+00
 cg2d: Sum(rhs),rhsMax =   2.56739074444567E-16  1.89073450912132E+02
 cg2d: Sum(rhs),rhsMax =  -7.45447251291103E-14  1.14746304099581E+00
 cg2d: Sum(rhs),rhsMax =   2.22044604925031E-15  3.69983935898362E+02
 cg2d: Sum(rhs),rhsMax =  -1.90974884979885E-13  1.00227605982733E+00
 cg2d: Sum(rhs),rhsMax =   1.99146255042137E-15  6.00188020663841E+02
 cg2d: Sum(rhs),rhsMax =  -2.79393403770068E-13  9.02213597486639E-01
 cg2d: Sum(rhs),rhsMax =   3.64985819345520E-15  8.71578060598605E+02
 cg2d: Sum(rhs),rhsMax =  -3.49444019420662E-13  8.40060701016998E-01
 cg2d: Sum(rhs),rhsMax =   9.29811783123569E-16  1.17463757356037E+03
 cg2d: Sum(rhs),rhsMax =  -3.98154491901795E-13  7.82543679710119E-01
 cg2d: Sum(rhs),rhsMax =   1.86656246015104E-15  1.49858166121228E+03
 cg2d: Sum(rhs),rhsMax =  -4.17987895374654E-13  7.18834943880603E-01
 cg2d: Sum(rhs),rhsMax =   2.18575157973078E-15  1.83164888966199E+03
 cg2d: Sum(rhs),rhsMax =  -4.16853677548062E-13  6.52621416724295E-01
 cg2d: Sum(rhs),rhsMax =   2.62290189567693E-15  2.16161545389010E+03
 cg2d: Sum(rhs),rhsMax =  -4.36570981408780E-13  5.89647655386443E-01
 cg2d: Sum(rhs),rhsMax =   3.72618602639818E-15  2.47650463597214E+03
(PID.TID 0000.0001)  MDSREADFIELD: opening file: g_xx_theta.0000000000.001.001.data
(PID.TID 0000.0001)  MDSREADFIELD: opening file: xx_theta.0000000000.001.001.data
(PID.TID 0000.0001) %MON En_BudgetfCori_max           =   1.4540029928789E-04
(PID.TID 0000.0001) %MON En_BudgetfCori_min           =  -1.4540029928789E-04
(PID.TID 0000.0001) %MON En_BudgetfCori_mean          =   0.0000000000000E+00
(PID.TID 0000.0001) %MON En_BudgetfCori_sd            =   1.0284451245737E-04
(PID.TID 0000.0001) %MON En_BudgetfCoriG_max          =   1.4526891053949E-04
(PID.TID 0000.0001) %MON En_BudgetfCoriG_min          =  -1.4544410433286E-04
(PID.TID 0000.0001) %MON En_BudgetfCoriG_mean         =  -2.3086365767121E-06
(PID.TID 0000.0001) %MON En_BudgetfCoriG_sd           =   1.0363181330709E-04
(PID.TID 0000.0001) %MON En_BudgetfCoriCos_max        =   1.4540029928789E-04
(PID.TID 0000.0001) %MON En_BudgetfCoriCos_min        =   3.5693770017430E-06
(PID.TID 0000.0001) %MON En_BudgetfCoriCos_mean       =   9.2601889431869E-05
(PID.TID 0000.0001) %MON En_BudgetfCoriCos_sd         =   4.4742416298653E-05
(PID.TID 0000.0001) // CG2D normalisation factor =          0.2278126663032464164969763E-09
(PID.TID 0000.0001) 
(PID.TID 0000.0001) // =======================================================
(PID.TID 0000.0001) // Field Initial Temperature at iteration          1
(PID.TID 0000.0001) // CMIN =          2.550364452389422E+02
(PID.TID 0000.0001) // CMAX =          3.154764877049333E+02
(PID.TID 0000.0001) // CINT =          2.238520091333006E+00
(PID.TID 0000.0001) // SYMBOLS (CMIN->CMAX): -abcdefghijklmnopqrstuvwxyz+
(PID.TID 0000.0001) //                  0.0: .
(PID.TID 0000.0001) // RANGE I (Lo:Hi:Step):(   1:   2:   1)
(PID.TID 0000.0001) // RANGE J (Lo:Hi:Step):(  64:   1:  -1)
(PID.TID 0000.0001) // RANGE K (Lo:Hi:Step):(   1:   1:   1)
(PID.TID 0000.0001) // =======================================================
(PID.TID 0000.0001) K =   1
(PID.TID 0000.0001) 
(PID.TID 0000.0001) |--J--|12
(PID.TID 0000.0001)     64 --
(PID.TID 0000.0001)     63 --
(PID.TID 0000.0001)     62 --
(PID.TID 0000.0001)     61 aa
(PID.TID 0000.0001)     60 aa
(PID.TID 0000.0001)     59 bb
(PID.TID 0000.0001)     58 cc
(PID.TID 0000.0001)     57 cc
(PID.TID 0000.0001)     56 dd
(PID.TID 0000.0001)     55 ee
(PID.TID 0000.0001)     54 gg
(PID.TID 0000.0001)     53 hh
(PID.TID 0000.0001)     52 ii
(PID.TID 0000.0001)     51 jj
(PID.TID 0000.0001)     50 ll
(PID.TID 0000.0001)     49 mm
(PID.TID 0000.0001)     48 nn
(PID.TID 0000.0001)     47 oo
(PID.TID 0000.0001)     46 qq
(PID.TID 0000.0001)     45 rr
(PID.TID 0000.0001)     44 ss
(PID.TID 0000.0001)     43 tt
(PID.TID 0000.0001)     42 vv
(PID.TID 0000.0001)     41 ww
(PID.TID 0000.0001)     40 xx
(PID.TID 0000.0001)     39 xx
(PID.TID 0000.0001)     38 yy
(PID.TID 0000.0001)     37 zz
(PID.TID 0000.0001)     36 zz
(PID.TID 0000.0001)     35 ++
(PID.TID 0000.0001)     34 ++
(PID.TID 0000.0001)     33 ++
(PID.TID 0000.0001)     32 ++
(PID.TID 0000.0001)     31 ++
(PID.TID 0000.0001)     30 ++
(PID.TID 0000.0001)     29 zz
(PID.TID 0000.0001)     28 zz
(PID.TID 0000.0001)     27 yy
(PID.TID 0000.0001)     26 xx
(PID.TID 0000.0001)     25 xx
(PID.TID 0000.0001)     24 ww
(PID.TID 0000.0001)     23 vv
(PID.TID 0000.0001)     22 tt
(PID.TID 0000.0001)     21 ss
(PID.TID 0000.0001)     20 rr
(PID.TID 0000.0001)     19 qq
(PID.TID 0000.0001)     18 oo
(PID.TID 0000.0001)     17 nn
(PID.TID 0000.0001)     16 mm
(PID.TID 0000.0001)     15 ll
(PID.TID 0000.0001)     14 jj
(PID.TID 0000.0001)     13 ii
(PID.TID 0000.0001)     12 hh
(PID.TID 0000.0001)     11 gg
(PID.TID 0000.0001)     10 ee
(PID.TID 0000.0001)      9 dd
(PID.TID 0000.0001)      8 cc
(PID.TID 0000.0001)      7 cc
(PID.TID 0000.0001)      6 bb
(PID.TID 0000.0001)      5 aa
(PID.TID 0000.0001)      4 aa
(PID.TID 0000.0001)      3 --
(PID.TID 0000.0001)      2 --
(PID.TID 0000.0001)      1 --
(PID.TID 0000.0001) // =======================================================
(PID.TID 0000.0001) // END OF FIELD                                          =
(PID.TID 0000.0001) // =======================================================
(PID.TID 0000.0001) 
(PID.TID 0000.0001) // =======================================================
(PID.TID 0000.0001) // Field Initial Salinity at iteration          1
(PID.TID 0000.0001) // CMIN =          1.000000000000000E+32
(PID.TID 0000.0001) // CMAX =         -1.000000000000000E+32
(PID.TID 0000.0001) // CINT =          0.000000000000000E+00
(PID.TID 0000.0001) // SYMBOLS (CMIN->CMAX): -abcdefghijklmnopqrstuvwxyz+
(PID.TID 0000.0001) //                  0.0: .
(PID.TID 0000.0001) // RANGE I (Lo:Hi:Step):(   1:   2:   1)
(PID.TID 0000.0001) // RANGE J (Lo:Hi:Step):(  64:   1:  -1)
(PID.TID 0000.0001) // RANGE K (Lo:Hi:Step):(   1:   1:   1)
(PID.TID 0000.0001) // =======================================================
(PID.TID 0000.0001) // =======================================================
(PID.TID 0000.0001) // END OF FIELD                                          =
(PID.TID 0000.0001) // =======================================================
(PID.TID 0000.0001) 
(PID.TID 0000.0001) Start initial hydrostatic pressure computation
(PID.TID 0000.0001) Pressure is predetermined for buoyancyRelation ATMOSPHERIC
(PID.TID 0000.0001) 
(PID.TID 0000.0001)  MDSREADFIELD: opening file: xx_theta.0000000000.001.001.data
(PID.TID 0000.0001)  MDSREADFIELD: opening file: xx_salt.0000000000.001.001.data
(PID.TID 0000.0001)  MDSREADFIELD: opening file: xx_diffkr.0000000000.001.001.data
(PID.TID 0000.0001) // =======================================================
(PID.TID 0000.0001) // Model current state
(PID.TID 0000.0001) // =======================================================
(PID.TID 0000.0001) 
(PID.TID 0000.0001) // =======================================================
(PID.TID 0000.0001) // Begin MONITOR dynamic field statistics
(PID.TID 0000.0001) // =======================================================
(PID.TID 0000.0001) %MON time_tsnumber                =                     0
(PID.TID 0000.0001) %MON time_secondsf                =   0.0000000000000E+00
(PID.TID 0000.0001) %MON dynstat_eta_max              =   0.0000000000000E+00
(PID.TID 0000.0001) %MON dynstat_eta_min              =   0.0000000000000E+00
(PID.TID 0000.0001) %MON dynstat_eta_mean             =   0.0000000000000E+00
(PID.TID 0000.0001) %MON dynstat_eta_sd               =   0.0000000000000E+00
(PID.TID 0000.0001) %MON dynstat_eta_del2             =   0.0000000000000E+00
(PID.TID 0000.0001) %MON dynstat_uvel_max             =   0.0000000000000E+00
(PID.TID 0000.0001) %MON dynstat_uvel_min             =   0.0000000000000E+00
(PID.TID 0000.0001) %MON dynstat_uvel_mean            =   0.0000000000000E+00
(PID.TID 0000.0001) %MON dynstat_uvel_sd              =   0.0000000000000E+00
(PID.TID 0000.0001) %MON dynstat_uvel_del2            =   0.0000000000000E+00
(PID.TID 0000.0001) %MON dynstat_vvel_max             =   0.0000000000000E+00
(PID.TID 0000.0001) %MON dynstat_vvel_min             =   0.0000000000000E+00
(PID.TID 0000.0001) %MON dynstat_vvel_mean            =   0.0000000000000E+00
(PID.TID 0000.0001) %MON dynstat_vvel_sd              =   0.0000000000000E+00
(PID.TID 0000.0001) %MON dynstat_vvel_del2            =   0.0000000000000E+00
(PID.TID 0000.0001) %MON dynstat_wvel_max             =   0.0000000000000E+00
(PID.TID 0000.0001) %MON dynstat_wvel_min             =   0.0000000000000E+00
(PID.TID 0000.0001) %MON dynstat_wvel_mean            =   0.0000000000000E+00
(PID.TID 0000.0001) %MON dynstat_wvel_sd              =   0.0000000000000E+00
(PID.TID 0000.0001) %MON dynstat_wvel_del2            =   0.0000000000000E+00
(PID.TID 0000.0001) %MON dynstat_theta_max            =   4.1921910192279E+02
(PID.TID 0000.0001) %MON dynstat_theta_min            =   2.5503644523894E+02
(PID.TID 0000.0001) %MON dynstat_theta_mean           =   3.1867742699273E+02
(PID.TID 0000.0001) %MON dynstat_theta_sd             =   4.5642506304785E+01
(PID.TID 0000.0001) %MON dynstat_theta_del2           =   4.0241168714763E-02
(PID.TID 0000.0001) %MON dynstat_salt_max             =   0.0000000000000E+00
(PID.TID 0000.0001) %MON dynstat_salt_min             =   0.0000000000000E+00
(PID.TID 0000.0001) %MON dynstat_salt_mean            =   0.0000000000000E+00
(PID.TID 0000.0001) %MON dynstat_salt_sd              =   0.0000000000000E+00
(PID.TID 0000.0001) %MON dynstat_salt_del2            =   0.0000000000000E+00
(PID.TID 0000.0001) %MON advcfl_uvel_max              =   0.0000000000000E+00
(PID.TID 0000.0001) %MON advcfl_vvel_max              =   0.0000000000000E+00
(PID.TID 0000.0001) %MON advcfl_wvel_max              =   0.0000000000000E+00
(PID.TID 0000.0001) %MON advcfl_W_hf_max              =   0.0000000000000E+00
(PID.TID 0000.0001) %MON pe_b_mean                    =   0.0000000000000E+00
(PID.TID 0000.0001) %MON ke_max                       =   0.0000000000000E+00
(PID.TID 0000.0001) %MON ke_mean                      =   0.0000000000000E+00
(PID.TID 0000.0001) %MON ke_vol                       =   1.7486817826145E+22
(PID.TID 0000.0001) %MON vort_r_min                   =   0.0000000000000E+00
(PID.TID 0000.0001) %MON vort_r_max                   =   0.0000000000000E+00
(PID.TID 0000.0001) %MON vort_a_mean                  =  -2.9209451854128E-21
(PID.TID 0000.0001) %MON vort_a_sd                    =   8.3955319514376E-05
(PID.TID 0000.0001) %MON vort_p_mean                  =   4.8186785874352E-22
(PID.TID 0000.0001) %MON vort_p_sd                    =   8.3955319514376E-05
(PID.TID 0000.0001) %MON surfExpan_theta_mean         =   0.0000000000000E+00
(PID.TID 0000.0001) %MON surfExpan_salt_mean          =   0.0000000000000E+00
(PID.TID 0000.0001) %MON surfExpan_Heat_mean          =   0.0000000000000E+00
(PID.TID 0000.0001) %MON En_Budget_T2PE_mean          =   0.0000000000000E+00
(PID.TID 0000.0001) // =======================================================
(PID.TID 0000.0001) // End MONITOR dynamic field statistics
(PID.TID 0000.0001) // =======================================================
 cg2d: Sum(rhs),rhsMax =  -1.19348975147204E-15  8.97359314695382E+01
(PID.TID 0000.0001)                    cg2d_init_res =    3.34522080222340E+00
(PID.TID 0000.0001)                       cg2d_iters =    19
(PID.TID 0000.0001)                         cg2d_res =    4.03702091631745E-14
(PID.TID 0000.0001) // =======================================================
(PID.TID 0000.0001) // Begin MONITOR dynamic field statistics
(PID.TID 0000.0001) // =======================================================
(PID.TID 0000.0001) %MON time_tsnumber                =                     1
(PID.TID 0000.0001) %MON time_secondsf                =   1.2000000000000E+03
(PID.TID 0000.0001) %MON dynstat_eta_max              =   1.4335929277102E+02
(PID.TID 0000.0001) %MON dynstat_eta_min              =  -9.2440656691673E+01
(PID.TID 0000.0001) %MON dynstat_eta_mean             =  -6.0807038225685E-15
(PID.TID 0000.0001) %MON dynstat_eta_sd               =   7.6540721260709E+01
(PID.TID 0000.0001) %MON dynstat_eta_del2             =   1.0992341698088E+00
(PID.TID 0000.0001) %MON dynstat_uvel_max             =   5.8522331839387E-16
(PID.TID 0000.0001) %MON dynstat_uvel_min             =  -5.8522331839387E-16
(PID.TID 0000.0001) %MON dynstat_uvel_mean            =   0.0000000000000E+00
(PID.TID 0000.0001) %MON dynstat_uvel_sd              =   2.0618333497552E-17
(PID.TID 0000.0001) %MON dynstat_uvel_del2            =   3.1284126534997E-17
(PID.TID 0000.0001) %MON dynstat_vvel_max             =   5.2726881150810E+00
(PID.TID 0000.0001) %MON dynstat_vvel_min             =  -5.2726881150634E+00
(PID.TID 0000.0001) %MON dynstat_vvel_mean            =   4.6281411120127E-07
(PID.TID 0000.0001) %MON dynstat_vvel_sd              =   1.9374163464083E+00
(PID.TID 0000.0001) %MON dynstat_vvel_del2            =   1.5138490506345E-02
(PID.TID 0000.0001) %MON dynstat_wvel_max             =   1.1946607730912E-01
(PID.TID 0000.0001) %MON dynstat_wvel_min             =  -7.7033880576390E-02
(PID.TID 0000.0001) %MON dynstat_wvel_mean            =   3.6235064951747E-19
(PID.TID 0000.0001) %MON dynstat_wvel_sd              =   5.1844199223292E-02
(PID.TID 0000.0001) %MON dynstat_wvel_del2            =   1.6735908686377E-03
(PID.TID 0000.0001) %MON dynstat_theta_max            =   4.1955348096028E+02
(PID.TID 0000.0001) %MON dynstat_theta_min            =   2.5503646775353E+02
(PID.TID 0000.0001) %MON dynstat_theta_mean           =   3.1869076313071E+02
(PID.TID 0000.0001) %MON dynstat_theta_sd             =   4.5634438104011E+01
(PID.TID 0000.0001) %MON dynstat_theta_del2           =   4.2535901307841E-02
(PID.TID 0000.0001) %MON dynstat_salt_max             =   0.0000000000000E+00
(PID.TID 0000.0001) %MON dynstat_salt_min             =   0.0000000000000E+00
(PID.TID 0000.0001) %MON dynstat_salt_mean            =   0.0000000000000E+00
(PID.TID 0000.0001) %MON dynstat_salt_sd              =   0.0000000000000E+00
(PID.TID 0000.0001) %MON dynstat_salt_del2            =   0.0000000000000E+00
(PID.TID 0000.0001) %MON advcfl_uvel_max              =   4.1696078042274E-21
(PID.TID 0000.0001) %MON advcfl_vvel_max              =   2.0235036780437E-02
(PID.TID 0000.0001) %MON advcfl_wvel_max              =   2.8671858554188E-02
(PID.TID 0000.0001) %MON advcfl_W_hf_max              =   2.8482436498480E-02
(PID.TID 0000.0001) %MON pe_b_mean                    =   2.9292410055548E-02
(PID.TID 0000.0001) %MON ke_max                       =   1.3026550730237E+01
(PID.TID 0000.0001) %MON ke_mean                      =   1.8764141793622E+00
(PID.TID 0000.0001) %MON ke_vol                       =   1.7486817826145E+22
(PID.TID 0000.0001) %MON vort_r_min                   =  -3.1253579404335E-21
(PID.TID 0000.0001) %MON vort_r_max                   =   1.9933172242370E-21
(PID.TID 0000.0001) %MON vort_a_mean                  =  -2.9209451854128E-21
(PID.TID 0000.0001) %MON vort_a_sd                    =   8.3955319514376E-05
(PID.TID 0000.0001) %MON vort_p_mean                  =   4.8186785874352E-22
(PID.TID 0000.0001) %MON vort_p_sd                    =   8.3955319514376E-05
(PID.TID 0000.0001) %MON surfExpan_theta_mean         =  -1.1110632701895E+00
(PID.TID 0000.0001) %MON surfExpan_salt_mean          =   0.0000000000000E+00
(PID.TID 0000.0001) %MON surfExpan_Heat_mean          =  -1.1205695374306E+02
(PID.TID 0000.0001) %MON En_Budget_T2PE_mean          =   3.0624060802308E+01
(PID.TID 0000.0001) // =======================================================
(PID.TID 0000.0001) // End MONITOR dynamic field statistics
(PID.TID 0000.0001) // =======================================================
 cg2d: Sum(rhs),rhsMax =   1.51961776495568E-15  1.89073450912132E+02
(PID.TID 0000.0001)                    cg2d_init_res =    2.90222958552257E+00
(PID.TID 0000.0001)                       cg2d_iters =    18
(PID.TID 0000.0001)                         cg2d_res =    5.23865481131359E-14
(PID.TID 0000.0001) // =======================================================
(PID.TID 0000.0001) // Begin MONITOR dynamic field statistics
(PID.TID 0000.0001) // =======================================================
(PID.TID 0000.0001) %MON time_tsnumber                =                     2
(PID.TID 0000.0001) %MON time_secondsf                =   2.4000000000000E+03
(PID.TID 0000.0001) %MON dynstat_eta_max              =   4.2435855957019E+02
(PID.TID 0000.0001) %MON dynstat_eta_min              =  -2.7278743290318E+02
(PID.TID 0000.0001) %MON dynstat_eta_mean             =  -1.2912986356065E-14
(PID.TID 0000.0001) %MON dynstat_eta_sd               =   2.2413789637268E+02
(PID.TID 0000.0001) %MON dynstat_eta_del2             =   2.1382734928350E+00
(PID.TID 0000.0001) %MON dynstat_uvel_max             =   8.7088558281342E-01
(PID.TID 0000.0001) %MON dynstat_uvel_min             =   3.8323449779852E-05
(PID.TID 0000.0001) %MON dynstat_uvel_mean            =   2.3378354986162E-01
(PID.TID 0000.0001) %MON dynstat_uvel_sd              =   2.2937820439075E-01
(PID.TID 0000.0001) %MON dynstat_uvel_del2            =   2.4523199063372E-03
(PID.TID 0000.0001) %MON dynstat_vvel_max             =   1.0228690360855E+01
(PID.TID 0000.0001) %MON dynstat_vvel_min             =  -1.0228690360602E+01
(PID.TID 0000.0001) %MON dynstat_vvel_mean            =   5.9858353366613E-07
(PID.TID 0000.0001) %MON dynstat_vvel_sd              =   3.8107080577526E+00
(PID.TID 0000.0001) %MON dynstat_vvel_del2            =   2.5136256708987E-02
(PID.TID 0000.0001) %MON dynstat_wvel_max             =   2.3416605566668E-01
(PID.TID 0000.0001) %MON dynstat_wvel_min             =  -1.5028898017623E-01
(PID.TID 0000.0001) %MON dynstat_wvel_mean            =   1.9803020245037E-18
(PID.TID 0000.0001) %MON dynstat_wvel_sd              =   9.9653305627488E-02
(PID.TID 0000.0001) %MON dynstat_wvel_del2            =   1.8870498922526E-03
(PID.TID 0000.0001) %MON dynstat_theta_max            =   4.2021985667317E+02
(PID.TID 0000.0001) %MON dynstat_theta_min            =   2.5503651425748E+02
(PID.TID 0000.0001) %MON dynstat_theta_mean           =   3.1872449346075E+02
(PID.TID 0000.0001) %MON dynstat_theta_sd             =   4.5614069261412E+01
(PID.TID 0000.0001) %MON dynstat_theta_del2           =   4.3855135857222E-02
(PID.TID 0000.0001) %MON dynstat_salt_max             =   0.0000000000000E+00
(PID.TID 0000.0001) %MON dynstat_salt_min             =   0.0000000000000E+00
(PID.TID 0000.0001) %MON dynstat_salt_mean            =   0.0000000000000E+00
(PID.TID 0000.0001) %MON dynstat_salt_sd              =   0.0000000000000E+00
(PID.TID 0000.0001) %MON dynstat_salt_del2            =   0.0000000000000E+00
(PID.TID 0000.0001) %MON advcfl_uvel_max              =   3.0856231979444E-07
(PID.TID 0000.0001) %MON advcfl_vvel_max              =   3.9254725701601E-02
(PID.TID 0000.0001) %MON advcfl_wvel_max              =   5.6199853360004E-02
(PID.TID 0000.0001) %MON advcfl_W_hf_max              =   5.5934455812898E-02
(PID.TID 0000.0001) %MON pe_b_mean                    =   2.5118898295185E-01
(PID.TID 0000.0001) %MON ke_max                       =   8.3726296507290E+03
(PID.TID 0000.0001) %MON ke_mean                      =   7.3129298909225E+00
(PID.TID 0000.0001) %MON ke_vol                       =   1.7486817826145E+22
(PID.TID 0000.0001) %MON vort_r_min                   =  -1.1709343932029E-02
(PID.TID 0000.0001) %MON vort_r_max                   =   1.1708767949918E-02
(PID.TID 0000.0001) %MON vort_a_mean                  =  -4.5757360501810E-14
(PID.TID 0000.0001) %MON vort_a_sd                    =   8.5416162150447E-05
(PID.TID 0000.0001) %MON vort_p_mean                  =  -4.5757363170606E-14
(PID.TID 0000.0001) %MON vort_p_sd                    =   8.5416162150447E-05
(PID.TID 0000.0001) %MON surfExpan_theta_mean         =  -2.1724085412463E+00
(PID.TID 0000.0001) %MON surfExpan_salt_mean          =   0.0000000000000E+00
(PID.TID 0000.0001) %MON surfExpan_Heat_mean          =  -2.1909956880849E+02
(PID.TID 0000.0001) %MON En_Budget_T2PE_mean          =   5.9772676130790E+01
(PID.TID 0000.0001) // =======================================================
(PID.TID 0000.0001) // End MONITOR dynamic field statistics
(PID.TID 0000.0001) // =======================================================
 cg2d: Sum(rhs),rhsMax =   3.42087469462626E-15  3.69983935898360E+02
(PID.TID 0000.0001)                    cg2d_init_res =    2.11083821130790E+00
(PID.TID 0000.0001)                       cg2d_iters =    18
(PID.TID 0000.0001)                         cg2d_res =    3.26481301175538E-14
(PID.TID 0000.0001) // =======================================================
(PID.TID 0000.0001) // Begin MONITOR dynamic field statistics
(PID.TID 0000.0001) // =======================================================
(PID.TID 0000.0001) %MON time_tsnumber                =                     3
(PID.TID 0000.0001) %MON time_secondsf                =   3.6000000000000E+03
(PID.TID 0000.0001) %MON dynstat_eta_max              =   8.2446269050927E+02
(PID.TID 0000.0001) %MON dynstat_eta_min              =  -5.3368676356688E+02
(PID.TID 0000.0001) %MON dynstat_eta_mean             =  -2.5986056726718E-14
(PID.TID 0000.0001) %MON dynstat_eta_sd               =   4.3546355560747E+02
(PID.TID 0000.0001) %MON dynstat_eta_del2             =   2.5720275387609E+00
(PID.TID 0000.0001) %MON dynstat_uvel_max             =   2.2294211938484E+00
(PID.TID 0000.0001) %MON dynstat_uvel_min             =  -1.8620007313257E-02
(PID.TID 0000.0001) %MON dynstat_uvel_mean            =   6.0431470534392E-01
(PID.TID 0000.0001) %MON dynstat_uvel_sd              =   5.9909601279104E-01
(PID.TID 0000.0001) %MON dynstat_uvel_del2            =   6.1771114320511E-03
(PID.TID 0000.0001) %MON dynstat_vvel_max             =   1.4565248770865E+01
(PID.TID 0000.0001) %MON dynstat_vvel_min             =  -1.4565248769040E+01
(PID.TID 0000.0001) %MON dynstat_vvel_mean            =   5.8246103893004E-07
(PID.TID 0000.0001) %MON dynstat_vvel_sd              =   5.5335223305318E+00
(PID.TID 0000.0001) %MON dynstat_vvel_del2            =   3.0426584966469E-02
(PID.TID 0000.0001) %MON dynstat_wvel_max             =   3.3342010911599E-01
(PID.TID 0000.0001) %MON dynstat_wvel_min             =  -2.1753228033551E-01
(PID.TID 0000.0001) %MON dynstat_wvel_mean            =   2.1145783634994E-18
(PID.TID 0000.0001) %MON dynstat_wvel_sd              =   1.4266621389441E-01
(PID.TID 0000.0001) %MON dynstat_wvel_del2            =   1.9144045956993E-03
(PID.TID 0000.0001) %MON dynstat_theta_max            =   4.2091730514757E+02
(PID.TID 0000.0001) %MON dynstat_theta_min            =   2.5503657555975E+02
(PID.TID 0000.0001) %MON dynstat_theta_mean           =   3.1876890183783E+02
(PID.TID 0000.0001) %MON dynstat_theta_sd             =   4.5587070715502E+01
(PID.TID 0000.0001) %MON dynstat_theta_del2           =   4.5686617937588E-02
(PID.TID 0000.0001) %MON dynstat_salt_max             =   0.0000000000000E+00
(PID.TID 0000.0001) %MON dynstat_salt_min             =   0.0000000000000E+00
(PID.TID 0000.0001) %MON dynstat_salt_mean            =   0.0000000000000E+00
(PID.TID 0000.0001) %MON dynstat_salt_sd              =   0.0000000000000E+00
(PID.TID 0000.0001) %MON dynstat_salt_del2            =   0.0000000000000E+00
(PID.TID 0000.0001) %MON advcfl_uvel_max              =   8.1387042094869E-07
(PID.TID 0000.0001) %MON advcfl_vvel_max              =   5.5897170126882E-02
(PID.TID 0000.0001) %MON advcfl_wvel_max              =   8.0020826187838E-02
(PID.TID 0000.0001) %MON advcfl_W_hf_max              =   7.9835956234900E-02
(PID.TID 0000.0001) %MON pe_b_mean                    =   9.4814254131149E-01
(PID.TID 0000.0001) %MON ke_max                       =   5.4649248908455E+04
(PID.TID 0000.0001) %MON ke_mean                      =   1.5668952869780E+01
(PID.TID 0000.0001) %MON ke_vol                       =   1.7486817826145E+22
(PID.TID 0000.0001) %MON vort_r_min                   =  -3.0659014116719E-02
(PID.TID 0000.0001) %MON vort_r_max                   =   3.0658947536092E-02
(PID.TID 0000.0001) %MON vort_a_mean                  =  -5.2437894078475E-14
(PID.TID 0000.0001) %MON vort_a_sd                    =   9.3006690593973E-05
(PID.TID 0000.0001) %MON vort_p_mean                  =  -5.2437889411147E-14
(PID.TID 0000.0001) %MON vort_p_sd                    =   9.3006690593973E-05
(PID.TID 0000.0001) %MON surfExpan_theta_mean         =  -3.1263854891568E+00
(PID.TID 0000.0001) %MON surfExpan_salt_mean          =   0.0000000000000E+00
(PID.TID 0000.0001) %MON surfExpan_Heat_mean          =  -3.1531348712632E+02
(PID.TID 0000.0001) %MON En_Budget_T2PE_mean          =   8.5968268405939E+01
(PID.TID 0000.0001) // =======================================================
(PID.TID 0000.0001) // End MONITOR dynamic field statistics
(PID.TID 0000.0001) // =======================================================
 cg2d: Sum(rhs),rhsMax =   8.25728374564960E-16  6.00188020663806E+02
(PID.TID 0000.0001)                    cg2d_init_res =    1.63582212527080E+00
(PID.TID 0000.0001)                       cg2d_iters =    18
(PID.TID 0000.0001)                         cg2d_res =    1.85317043511649E-14
(PID.TID 0000.0001) // =======================================================
(PID.TID 0000.0001) // Begin MONITOR dynamic field statistics
(PID.TID 0000.0001) // =======================================================
(PID.TID 0000.0001) %MON time_tsnumber                =                     4
(PID.TID 0000.0001) %MON time_secondsf                =   4.8000000000000E+03
(PID.TID 0000.0001) %MON dynstat_eta_max              =   1.3212958932277E+03
(PID.TID 0000.0001) %MON dynstat_eta_min              =  -8.6541627901238E+02
(PID.TID 0000.0001) %MON dynstat_eta_mean             =  -4.3281754720884E-14
(PID.TID 0000.0001) %MON dynstat_eta_sd               =   7.0179723518737E+02
(PID.TID 0000.0001) %MON dynstat_eta_del2             =   3.1001807145343E+00
(PID.TID 0000.0001) %MON dynstat_uvel_max             =   4.0093965036708E+00
(PID.TID 0000.0001) %MON dynstat_uvel_min             =  -7.2580075660595E-02
(PID.TID 0000.0001) %MON dynstat_uvel_mean            =   1.0932707992460E+00
(PID.TID 0000.0001) %MON dynstat_uvel_sd              =   1.0964637363149E+00
(PID.TID 0000.0001) %MON dynstat_uvel_del2            =   1.0567339604370E-02
(PID.TID 0000.0001) %MON dynstat_vvel_max             =   1.8296281264820E+01
(PID.TID 0000.0001) %MON dynstat_vvel_min             =  -1.8296281255931E+01
(PID.TID 0000.0001) %MON dynstat_vvel_mean            =   5.3116825213880E-07
(PID.TID 0000.0001) %MON dynstat_vvel_sd              =   7.0706032526634E+00
(PID.TID 0000.0001) %MON dynstat_vvel_del2            =   3.3580798646957E-02
(PID.TID 0000.0001) %MON dynstat_wvel_max             =   4.1431821124611E-01
(PID.TID 0000.0001) %MON dynstat_wvel_min             =  -2.7771168429245E-01
(PID.TID 0000.0001) %MON dynstat_wvel_mean            =  -1.6374496531309E-19
(PID.TID 0000.0001) %MON dynstat_wvel_sd              =   1.8057778461225E-01
(PID.TID 0000.0001) %MON dynstat_wvel_del2            =   1.7880820877323E-03
(PID.TID 0000.0001) %MON dynstat_theta_max            =   4.2160298209826E+02
(PID.TID 0000.0001) %MON dynstat_theta_min            =   2.5503670912312E+02
(PID.TID 0000.0001) %MON dynstat_theta_mean           =   3.1882219291407E+02
(PID.TID 0000.0001) %MON dynstat_theta_sd             =   4.5554484776141E+01
(PID.TID 0000.0001) %MON dynstat_theta_del2           =   4.6837026528907E-02
(PID.TID 0000.0001) %MON dynstat_salt_max             =   0.0000000000000E+00
(PID.TID 0000.0001) %MON dynstat_salt_min             =   0.0000000000000E+00
(PID.TID 0000.0001) %MON dynstat_salt_mean            =   0.0000000000000E+00
(PID.TID 0000.0001) %MON dynstat_salt_sd              =   0.0000000000000E+00
(PID.TID 0000.0001) %MON dynstat_salt_del2            =   0.0000000000000E+00
(PID.TID 0000.0001) %MON advcfl_uvel_max              =   1.4927750445495E-06
(PID.TID 0000.0001) %MON advcfl_vvel_max              =   7.0215782966552E-02
(PID.TID 0000.0001) %MON advcfl_wvel_max              =   9.9369454583158E-02
(PID.TID 0000.0001) %MON advcfl_W_hf_max              =   9.9436370699067E-02
(PID.TID 0000.0001) %MON pe_b_mean                    =   2.4625967965832E+00
(PID.TID 0000.0001) %MON ke_max                       =   1.7658678130333E+05
(PID.TID 0000.0001) %MON ke_mean                      =   2.6190552938880E+01
(PID.TID 0000.0001) %MON ke_vol                       =   1.7486817826145E+22
(PID.TID 0000.0001) %MON vort_r_min                   =  -5.5817337512210E-02
(PID.TID 0000.0001) %MON vort_r_max                   =   5.5817620584823E-02
(PID.TID 0000.0001) %MON vort_a_mean                  =  -4.9149195875251E-14
(PID.TID 0000.0001) %MON vort_a_sd                    =   1.1052250470253E-04
(PID.TID 0000.0001) %MON vort_p_mean                  =  -4.9149192372312E-14
(PID.TID 0000.0001) %MON vort_p_sd                    =   1.1052250470253E-04
(PID.TID 0000.0001) %MON surfExpan_theta_mean         =  -3.9465786912119E+00
(PID.TID 0000.0001) %MON surfExpan_salt_mean          =   0.0000000000000E+00
(PID.TID 0000.0001) %MON surfExpan_Heat_mean          =  -3.9803456536644E+02
(PID.TID 0000.0001) %MON En_Budget_T2PE_mean          =   1.0858602958985E+02
(PID.TID 0000.0001) // =======================================================
(PID.TID 0000.0001) // End MONITOR dynamic field statistics
(PID.TID 0000.0001) // =======================================================
 cg2d: Sum(rhs),rhsMax =   3.01147995429574E-15  8.71578060598304E+02
(PID.TID 0000.0001)                    cg2d_init_res =    1.31214044644238E+00
(PID.TID 0000.0001)                       cg2d_iters =    17
(PID.TID 0000.0001)                         cg2d_res =    6.51538792559022E-14
(PID.TID 0000.0001) // =======================================================
(PID.TID 0000.0001) // Begin MONITOR dynamic field statistics
(PID.TID 0000.0001) // =======================================================
(PID.TID 0000.0001) %MON time_tsnumber                =                     5
(PID.TID 0000.0001) %MON time_secondsf                =   6.0000000000000E+03
(PID.TID 0000.0001) %MON dynstat_eta_max              =   1.8889461099978E+03
(PID.TID 0000.0001) %MON dynstat_eta_min              =  -1.2560243582790E+03
(PID.TID 0000.0001) %MON dynstat_eta_mean             =  -2.5783627672148E-14
(PID.TID 0000.0001) %MON dynstat_eta_sd               =   1.0127024217682E+03
(PID.TID 0000.0001) %MON dynstat_eta_del2             =   3.6963010534801E+00
(PID.TID 0000.0001) %MON dynstat_uvel_max             =   6.1544675364993E+00
(PID.TID 0000.0001) %MON dynstat_uvel_min             =  -1.8651686058542E-01
(PID.TID 0000.0001) %MON dynstat_uvel_mean            =   1.6817321205835E+00
(PID.TID 0000.0001) %MON dynstat_uvel_sd              =   1.7094970971800E+00
(PID.TID 0000.0001) %MON dynstat_uvel_del2            =   1.5548317506068E-02
(PID.TID 0000.0001) %MON dynstat_vvel_max             =   2.1567476136927E+01
(PID.TID 0000.0001) %MON dynstat_vvel_min             =  -2.1567476119948E+01
(PID.TID 0000.0001) %MON dynstat_vvel_mean            =   4.7022567180838E-07
(PID.TID 0000.0001) %MON dynstat_vvel_sd              =   8.3873310170829E+00
(PID.TID 0000.0001) %MON dynstat_vvel_del2            =   3.5366979663451E-02
(PID.TID 0000.0001) %MON dynstat_wvel_max             =   4.7510456041843E-01
(PID.TID 0000.0001) %MON dynstat_wvel_min             =  -3.2874760551519E-01
(PID.TID 0000.0001) %MON dynstat_wvel_mean            =   2.2331493393435E-19
(PID.TID 0000.0001) %MON dynstat_wvel_sd              =   2.1261940798166E-01
(PID.TID 0000.0001) %MON dynstat_wvel_del2            =   1.6156823947811E-03
(PID.TID 0000.0001) %MON dynstat_theta_max            =   4.2224749971009E+02
(PID.TID 0000.0001) %MON dynstat_theta_min            =   2.5503701842097E+02
(PID.TID 0000.0001) %MON dynstat_theta_mean           =   3.1888226752950E+02
(PID.TID 0000.0001) %MON dynstat_theta_sd             =   4.5517528974960E+01
(PID.TID 0000.0001) %MON dynstat_theta_del2           =   4.7263988851776E-02
(PID.TID 0000.0001) %MON dynstat_salt_max             =   0.0000000000000E+00
(PID.TID 0000.0001) %MON dynstat_salt_min             =   0.0000000000000E+00
(PID.TID 0000.0001) %MON dynstat_salt_mean            =   0.0000000000000E+00
(PID.TID 0000.0001) %MON dynstat_salt_sd              =   0.0000000000000E+00
(PID.TID 0000.0001) %MON dynstat_salt_del2            =   0.0000000000000E+00
(PID.TID 0000.0001) %MON advcfl_uvel_max              =   2.3232540497295E-06
(PID.TID 0000.0001) %MON advcfl_vvel_max              =   8.2769673336769E-02
(PID.TID 0000.0001) %MON advcfl_wvel_max              =   1.1353288799605E-01
(PID.TID 0000.0001) %MON advcfl_W_hf_max              =   1.1402509450042E-01
(PID.TID 0000.0001) %MON pe_b_mean                    =   5.1278309752757E+00
(PID.TID 0000.0001) %MON ke_max                       =   4.1593071786180E+05
(PID.TID 0000.0001) %MON ke_mean                      =   3.8042188046666E+01
(PID.TID 0000.0001) %MON ke_vol                       =   1.7486817826145E+22
(PID.TID 0000.0001) %MON vort_r_min                   =  -8.6227444570332E-02
(PID.TID 0000.0001) %MON vort_r_max                   =   8.6227715472924E-02
(PID.TID 0000.0001) %MON vort_a_mean                  =  -4.8865889985487E-14
(PID.TID 0000.0001) %MON vort_a_sd                    =   1.3862108060964E-04
(PID.TID 0000.0001) %MON vort_p_mean                  =  -4.8865891554603E-14
(PID.TID 0000.0001) %MON vort_p_sd                    =   1.3862108060964E-04
(PID.TID 0000.0001) %MON surfExpan_theta_mean         =  -4.6074889840608E+00
(PID.TID 0000.0001) %MON surfExpan_salt_mean          =   0.0000000000000E+00
(PID.TID 0000.0001) %MON surfExpan_Heat_mean          =  -4.6469107008687E+02
(PID.TID 0000.0001) %MON En_Budget_T2PE_mean          =   1.2705883061642E+02
(PID.TID 0000.0001) // =======================================================
(PID.TID 0000.0001) // End MONITOR dynamic field statistics
(PID.TID 0000.0001) // =======================================================
 cg2d: Sum(rhs),rhsMax =   9.22872889219661E-16  1.17463757355851E+03
(PID.TID 0000.0001)                    cg2d_init_res =    1.07483847930664E+00
(PID.TID 0000.0001)                       cg2d_iters =    17
(PID.TID 0000.0001)                         cg2d_res =    4.83597834739709E-14
(PID.TID 0000.0001) // =======================================================
(PID.TID 0000.0001) // Begin MONITOR dynamic field statistics
(PID.TID 0000.0001) // =======================================================
(PID.TID 0000.0001) %MON time_tsnumber                =                     6
(PID.TID 0000.0001) %MON time_secondsf                =   7.2000000000000E+03
(PID.TID 0000.0001) %MON dynstat_eta_max              =   2.4997129949852E+03
(PID.TID 0000.0001) %MON dynstat_eta_min              =  -1.6915056490473E+03
(PID.TID 0000.0001) %MON dynstat_eta_mean             =  -1.2034409124189E-13
(PID.TID 0000.0001) %MON dynstat_eta_sd               =   1.3563937711360E+03
(PID.TID 0000.0001) %MON dynstat_eta_del2             =   4.2695700710458E+00
(PID.TID 0000.0001) %MON dynstat_uvel_max             =   8.6004656508273E+00
(PID.TID 0000.0001) %MON dynstat_uvel_min             =  -3.6890562243125E-01
(PID.TID 0000.0001) %MON dynstat_uvel_mean            =   2.3473611131428E+00
(PID.TID 0000.0001) %MON dynstat_uvel_sd              =   2.4231951175979E+00
(PID.TID 0000.0001) %MON dynstat_uvel_del2            =   2.0770875877757E-02
(PID.TID 0000.0001) %MON dynstat_vvel_max             =   2.4351166815467E+01
(PID.TID 0000.0001) %MON dynstat_vvel_min             =  -2.4351166765311E+01
(PID.TID 0000.0001) %MON dynstat_vvel_mean            =   4.0228579084162E-07
(PID.TID 0000.0001) %MON dynstat_vvel_sd              =   9.4576605712102E+00
(PID.TID 0000.0001) %MON dynstat_vvel_del2            =   3.6062351520798E-02
(PID.TID 0000.0001) %MON dynstat_wvel_max             =   5.1339149726903E-01
(PID.TID 0000.0001) %MON dynstat_wvel_min             =  -3.6907331892771E-01
(PID.TID 0000.0001) %MON dynstat_wvel_mean            =   1.9821185472707E-18
(PID.TID 0000.0001) %MON dynstat_wvel_sd              =   2.3810216932827E-01
(PID.TID 0000.0001) %MON dynstat_wvel_del2            =   1.4839443706500E-03
(PID.TID 0000.0001) %MON dynstat_theta_max            =   4.2283844413223E+02
(PID.TID 0000.0001) %MON dynstat_theta_min            =   2.5503763345904E+02
(PID.TID 0000.0001) %MON dynstat_theta_mean           =   3.1894683019844E+02
(PID.TID 0000.0001) %MON dynstat_theta_sd             =   4.5477571345097E+01
(PID.TID 0000.0001) %MON dynstat_theta_del2           =   4.7260284094151E-02
(PID.TID 0000.0001) %MON dynstat_salt_max             =   0.0000000000000E+00
(PID.TID 0000.0001) %MON dynstat_salt_min             =   0.0000000000000E+00
(PID.TID 0000.0001) %MON dynstat_salt_mean            =   0.0000000000000E+00
(PID.TID 0000.0001) %MON dynstat_salt_sd              =   0.0000000000000E+00
(PID.TID 0000.0001) %MON dynstat_salt_del2            =   0.0000000000000E+00
(PID.TID 0000.0001) %MON advcfl_uvel_max              =   3.2763633564948E-06
(PID.TID 0000.0001) %MON advcfl_vvel_max              =   9.3452665016952E-02
(PID.TID 0000.0001) %MON advcfl_wvel_max              =   1.2215577023273E-01
(PID.TID 0000.0001) %MON advcfl_W_hf_max              =   1.2321395934457E-01
(PID.TID 0000.0001) %MON pe_b_mean                    =   9.1990203118820E+00
(PID.TID 0000.0001) %MON ke_max                       =   8.1208791301612E+05
(PID.TID 0000.0001) %MON ke_mean                      =   5.0406251768227E+01
(PID.TID 0000.0001) %MON ke_vol                       =   1.7486817826145E+22
(PID.TID 0000.0001) %MON vort_r_min                   =  -1.2071156450384E-01
(PID.TID 0000.0001) %MON vort_r_max                   =   1.2071168223456E-01
(PID.TID 0000.0001) %MON vort_a_mean                  =  -5.2836190108060E-14
(PID.TID 0000.0001) %MON vort_a_sd                    =   1.7554369137958E-04
(PID.TID 0000.0001) %MON vort_p_mean                  =  -5.2836189106900E-14
(PID.TID 0000.0001) %MON vort_p_sd                    =   1.7554369137958E-04
(PID.TID 0000.0001) %MON surfExpan_theta_mean         =  -5.0893869084256E+00
(PID.TID 0000.0001) %MON surfExpan_salt_mean          =   0.0000000000000E+00
(PID.TID 0000.0001) %MON surfExpan_Heat_mean          =  -5.1329317481689E+02
(PID.TID 0000.0001) %MON En_Budget_T2PE_mean          =   1.4099761611730E+02
(PID.TID 0000.0001) // =======================================================
(PID.TID 0000.0001) // End MONITOR dynamic field statistics
(PID.TID 0000.0001) // =======================================================
 cg2d: Sum(rhs),rhsMax =   4.32293090213420E-15  1.49858166120338E+03
(PID.TID 0000.0001)                    cg2d_init_res =    8.91221128917824E-01
(PID.TID 0000.0001)                       cg2d_iters =    17
(PID.TID 0000.0001)                         cg2d_res =    3.35272737217008E-14
(PID.TID 0000.0001) // =======================================================
(PID.TID 0000.0001) // Begin MONITOR dynamic field statistics
(PID.TID 0000.0001) // =======================================================
(PID.TID 0000.0001) %MON time_tsnumber                =                     7
(PID.TID 0000.0001) %MON time_secondsf                =   8.4000000000000E+03
(PID.TID 0000.0001) %MON dynstat_eta_max              =   3.1262331261825E+03
(PID.TID 0000.0001) %MON dynstat_eta_min              =  -2.1561100329583E+03
(PID.TID 0000.0001) %MON dynstat_eta_mean             =  -8.8033325177000E-14
(PID.TID 0000.0001) %MON dynstat_eta_sd               =   1.7201579287352E+03
(PID.TID 0000.0001) %MON dynstat_eta_del2             =   5.1193899936291E+00
(PID.TID 0000.0001) %MON dynstat_uvel_max             =   1.1278497127401E+01
(PID.TID 0000.0001) %MON dynstat_uvel_min             =  -6.3493938025260E-01
(PID.TID 0000.0001) %MON dynstat_uvel_mean            =   3.0654504467440E+00
(PID.TID 0000.0001) %MON dynstat_uvel_sd              =   3.2201768239709E+00
(PID.TID 0000.0001) %MON dynstat_uvel_del2            =   2.6015049576770E-02
(PID.TID 0000.0001) %MON dynstat_vvel_max             =   2.6475554239387E+01
(PID.TID 0000.0001) %MON dynstat_vvel_min             =  -2.6475554115656E+01
(PID.TID 0000.0001) %MON dynstat_vvel_mean            =   3.2914856493122E-07
(PID.TID 0000.0001) %MON dynstat_vvel_sd              =   1.0265790795558E+01
(PID.TID 0000.0001) %MON dynstat_vvel_del2            =   3.6543819925394E-02
(PID.TID 0000.0001) %MON dynstat_wvel_max             =   5.2921781495402E-01
(PID.TID 0000.0001) %MON dynstat_wvel_min             =  -3.9736250588069E-01
(PID.TID 0000.0001) %MON dynstat_wvel_mean            =   3.4581367538477E-18
(PID.TID 0000.0001) %MON dynstat_wvel_sd              =   2.5652801412548E-01
(PID.TID 0000.0001) %MON dynstat_wvel_del2            =   1.4149623358653E-03
(PID.TID 0000.0001) %MON dynstat_theta_max            =   4.2350902310529E+02
(PID.TID 0000.0001) %MON dynstat_theta_min            =   2.5503866893321E+02
(PID.TID 0000.0001) %MON dynstat_theta_mean           =   3.1901347465470E+02
(PID.TID 0000.0001) %MON dynstat_theta_sd             =   4.5436085021403E+01
(PID.TID 0000.0001) %MON dynstat_theta_del2           =   4.7000358731276E-02
(PID.TID 0000.0001) %MON dynstat_salt_max             =   0.0000000000000E+00
(PID.TID 0000.0001) %MON dynstat_salt_min             =   0.0000000000000E+00
(PID.TID 0000.0001) %MON dynstat_salt_mean            =   0.0000000000000E+00
(PID.TID 0000.0001) %MON dynstat_salt_sd              =   0.0000000000000E+00
(PID.TID 0000.0001) %MON dynstat_salt_del2            =   0.0000000000000E+00
(PID.TID 0000.0001) %MON advcfl_uvel_max              =   4.3179208613609E-06
(PID.TID 0000.0001) %MON advcfl_vvel_max              =   1.0160544339502E-01
(PID.TID 0000.0001) %MON advcfl_wvel_max              =   1.2530614803154E-01
(PID.TID 0000.0001) %MON advcfl_W_hf_max              =   1.2701227558896E-01
(PID.TID 0000.0001) %MON pe_b_mean                    =   1.4794716498952E+01
(PID.TID 0000.0001) %MON ke_max                       =   1.3964166245194E+06
(PID.TID 0000.0001) %MON ke_mean                      =   6.2566904176200E+01
(PID.TID 0000.0001) %MON ke_vol                       =   1.7486817826145E+22
(PID.TID 0000.0001) %MON vort_r_min                   =  -1.5794871282643E-01
(PID.TID 0000.0001) %MON vort_r_max                   =   1.5794869072676E-01
(PID.TID 0000.0001) %MON vort_a_mean                  =  -5.9836061129126E-14
(PID.TID 0000.0001) %MON vort_a_sd                    =   2.1895752201527E-04
(PID.TID 0000.0001) %MON vort_p_mean                  =  -5.9836068754219E-14
(PID.TID 0000.0001) %MON vort_p_sd                    =   2.1895752201527E-04
(PID.TID 0000.0001) %MON surfExpan_theta_mean         =  -5.3791266751918E+00
(PID.TID 0000.0001) %MON surfExpan_salt_mean          =   0.0000000000000E+00
(PID.TID 0000.0001) %MON surfExpan_Heat_mean          =  -5.4251505309616E+02
(PID.TID 0000.0001) %MON En_Budget_T2PE_mean          =   1.5020525855535E+02
(PID.TID 0000.0001) // =======================================================
(PID.TID 0000.0001) // End MONITOR dynamic field statistics
(PID.TID 0000.0001) // =======================================================
 cg2d: Sum(rhs),rhsMax =   1.26981758441502E-15  1.83164888962663E+03
(PID.TID 0000.0001)                    cg2d_init_res =    7.43136298050887E-01
(PID.TID 0000.0001)                       cg2d_iters =    17
(PID.TID 0000.0001)                         cg2d_res =    1.98907386457178E-14
(PID.TID 0000.0001) // =======================================================
(PID.TID 0000.0001) // Begin MONITOR dynamic field statistics
(PID.TID 0000.0001) // =======================================================
(PID.TID 0000.0001) %MON time_tsnumber                =                     8
(PID.TID 0000.0001) %MON time_secondsf                =   9.6000000000000E+03
(PID.TID 0000.0001) %MON dynstat_eta_max              =   3.7434381972056E+03
(PID.TID 0000.0001) %MON dynstat_eta_min              =  -2.6328837629459E+03
(PID.TID 0000.0001) %MON dynstat_eta_mean             =  -2.0119127647912E-13
(PID.TID 0000.0001) %MON dynstat_eta_sd               =   2.0907967216888E+03
(PID.TID 0000.0001) %MON dynstat_eta_del2             =   5.9697933743518E+00
(PID.TID 0000.0001) %MON dynstat_uvel_max             =   1.4117347579118E+01
(PID.TID 0000.0001) %MON dynstat_uvel_min             =  -1.0001354029982E+00
(PID.TID 0000.0001) %MON dynstat_uvel_mean            =   3.8097539972728E+00
(PID.TID 0000.0001) %MON dynstat_uvel_sd              =   4.0811547952534E+00
(PID.TID 0000.0001) %MON dynstat_uvel_del2            =   3.1303507565609E-02
(PID.TID 0000.0001) %MON dynstat_vvel_max             =   2.7915329833997E+01
(PID.TID 0000.0001) %MON dynstat_vvel_min             =  -2.7915329572184E+01
(PID.TID 0000.0001) %MON dynstat_vvel_mean            =   2.5408097382993E-07
(PID.TID 0000.0001) %MON dynstat_vvel_sd              =   1.0807280011742E+01
(PID.TID 0000.0001) %MON dynstat_vvel_del2            =   3.6945921484561E-02
(PID.TID 0000.0001) %MON dynstat_wvel_max             =   5.2416931457889E-01
(PID.TID 0000.0001) %MON dynstat_wvel_min             =  -4.1270451740564E-01
(PID.TID 0000.0001) %MON dynstat_wvel_mean            =   2.1881270085155E-18
(PID.TID 0000.0001) %MON dynstat_wvel_sd              =   2.6764378204647E-01
(PID.TID 0000.0001) %MON dynstat_wvel_del2            =   1.3819596214756E-03
(PID.TID 0000.0001) %MON dynstat_theta_max            =   4.2420420431003E+02
(PID.TID 0000.0001) %MON dynstat_theta_min            =   2.5504018235290E+02
(PID.TID 0000.0001) %MON dynstat_theta_mean           =   3.1907977006460E+02
(PID.TID 0000.0001) %MON dynstat_theta_sd             =   4.5394599604423E+01
(PID.TID 0000.0001) %MON dynstat_theta_del2           =   4.7163748315730E-02
(PID.TID 0000.0001) %MON dynstat_salt_max             =   0.0000000000000E+00
(PID.TID 0000.0001) %MON dynstat_salt_min             =   0.0000000000000E+00
(PID.TID 0000.0001) %MON dynstat_salt_mean            =   0.0000000000000E+00
(PID.TID 0000.0001) %MON dynstat_salt_sd              =   0.0000000000000E+00
(PID.TID 0000.0001) %MON dynstat_salt_del2            =   0.0000000000000E+00
(PID.TID 0000.0001) %MON advcfl_uvel_max              =   5.4104065720041E-06
(PID.TID 0000.0001) %MON advcfl_vvel_max              =   1.0713088155420E-01
(PID.TID 0000.0001) %MON advcfl_wvel_max              =   1.2344299558526E-01
(PID.TID 0000.0001) %MON advcfl_W_hf_max              =   1.2580063549893E-01
(PID.TID 0000.0001) %MON pe_b_mean                    =   2.1857154657123E+01
(PID.TID 0000.0001) %MON ke_max                       =   2.1877091618484E+06
(PID.TID 0000.0001) %MON ke_mean                      =   7.3973513664530E+01
(PID.TID 0000.0001) %MON ke_vol                       =   1.7486817826145E+22
(PID.TID 0000.0001) %MON vort_r_min                   =  -1.9654795129303E-01
(PID.TID 0000.0001) %MON vort_r_max                   =   1.9654784698572E-01
(PID.TID 0000.0001) %MON vort_a_mean                  =  -6.8845074126295E-14
(PID.TID 0000.0001) %MON vort_a_sd                    =   2.6670433195974E-04
(PID.TID 0000.0001) %MON vort_p_mean                  =  -6.8845089829543E-14
(PID.TID 0000.0001) %MON vort_p_sd                    =   2.6670433195974E-04
(PID.TID 0000.0001) %MON surfExpan_theta_mean         =  -5.4704798835088E+00
(PID.TID 0000.0001) %MON surfExpan_salt_mean          =   0.0000000000000E+00
(PID.TID 0000.0001) %MON surfExpan_Heat_mean          =  -5.5172853581431E+02
(PID.TID 0000.0001) %MON En_Budget_T2PE_mean          =   1.5467268859622E+02
(PID.TID 0000.0001) // =======================================================
(PID.TID 0000.0001) // End MONITOR dynamic field statistics
(PID.TID 0000.0001) // =======================================================
 cg2d: Sum(rhs),rhsMax =   1.34614541735800E-15  2.16161545376970E+03
(PID.TID 0000.0001)                    cg2d_init_res =    6.19717322752984E-01
(PID.TID 0000.0001)                       cg2d_iters =    17
(PID.TID 0000.0001)                         cg2d_res =    1.77746930525664E-14
(PID.TID 0000.0001) // =======================================================
(PID.TID 0000.0001) // Begin MONITOR dynamic field statistics
(PID.TID 0000.0001) // =======================================================
(PID.TID 0000.0001) %MON time_tsnumber                =                     9
(PID.TID 0000.0001) %MON time_secondsf                =   1.0800000000000E+04
(PID.TID 0000.0001) %MON dynstat_eta_max              =   4.3297961162489E+03
(PID.TID 0000.0001) %MON dynstat_eta_min              =  -3.1044711485231E+03
(PID.TID 0000.0001) %MON dynstat_eta_mean             =  -1.5424632810935E-13
(PID.TID 0000.0001) %MON dynstat_eta_sd               =   2.4550949366623E+03
(PID.TID 0000.0001) %MON dynstat_eta_del2             =   6.8144293957543E+00
(PID.TID 0000.0001) %MON dynstat_uvel_max             =   1.7045336931582E+01
(PID.TID 0000.0001) %MON dynstat_uvel_min             =  -1.4793090766868E+00
(PID.TID 0000.0001) %MON dynstat_uvel_mean            =   4.5533547030623E+00
(PID.TID 0000.0001) %MON dynstat_uvel_sd              =   4.9855337819132E+00
(PID.TID 0000.0001) %MON dynstat_uvel_del2            =   3.6654932655917E-02
(PID.TID 0000.0001) %MON dynstat_vvel_max             =   2.8780894232192E+01
(PID.TID 0000.0001) %MON dynstat_vvel_min             =  -2.8780893916765E+01
(PID.TID 0000.0001) %MON dynstat_vvel_mean            =   1.8068134669699E-07
(PID.TID 0000.0001) %MON dynstat_vvel_sd              =   1.1089991120438E+01
(PID.TID 0000.0001) %MON dynstat_vvel_del2            =   3.7449407963834E-02
(PID.TID 0000.0001) %MON dynstat_wvel_max             =   5.0136018095969E-01
(PID.TID 0000.0001) %MON dynstat_wvel_min             =  -4.2656620874280E-01
(PID.TID 0000.0001) %MON dynstat_wvel_mean            =   3.2266882800582E-18
(PID.TID 0000.0001) %MON dynstat_wvel_sd              =   2.7148171298811E-01
(PID.TID 0000.0001) %MON dynstat_wvel_del2            =   1.3677287067129E-03
(PID.TID 0000.0001) %MON dynstat_theta_max            =   4.2484926101992E+02
(PID.TID 0000.0001) %MON dynstat_theta_min            =   2.5504214739767E+02
(PID.TID 0000.0001) %MON dynstat_theta_mean           =   3.1914334715294E+02
(PID.TID 0000.0001) %MON dynstat_theta_sd             =   4.5354646875289E+01
(PID.TID 0000.0001) %MON dynstat_theta_del2           =   4.7210105258586E-02
(PID.TID 0000.0001) %MON dynstat_salt_max             =   0.0000000000000E+00
(PID.TID 0000.0001) %MON dynstat_salt_min             =   0.0000000000000E+00
(PID.TID 0000.0001) %MON dynstat_salt_mean            =   0.0000000000000E+00
(PID.TID 0000.0001) %MON dynstat_salt_sd              =   0.0000000000000E+00
(PID.TID 0000.0001) %MON dynstat_salt_del2            =   0.0000000000000E+00
(PID.TID 0000.0001) %MON advcfl_uvel_max              =   6.5150793786694E-06
(PID.TID 0000.0001) %MON advcfl_vvel_max              =   1.1045266487440E-01
(PID.TID 0000.0001) %MON advcfl_wvel_max              =   1.1781845040499E-01
(PID.TID 0000.0001) %MON advcfl_W_hf_max              =   1.2032644343033E-01
(PID.TID 0000.0001) %MON pe_b_mean                    =   3.0137455740125E+01
(PID.TID 0000.0001) %MON ke_max                       =   3.1891515209613E+06
(PID.TID 0000.0001) %MON ke_mean                      =   8.4278184942893E+01
(PID.TID 0000.0001) %MON ke_vol                       =   1.7486817826145E+22
(PID.TID 0000.0001) %MON vort_r_min                   =  -2.3511524692810E-01
(PID.TID 0000.0001) %MON vort_r_max                   =   2.3511511318090E-01
(PID.TID 0000.0001) %MON vort_a_mean                  =  -7.9145029907560E-14
(PID.TID 0000.0001) %MON vort_a_sd                    =   3.1686520059854E-04
(PID.TID 0000.0001) %MON vort_p_mean                  =  -7.9145021878848E-14
(PID.TID 0000.0001) %MON vort_p_sd                    =   3.1686520059854E-04
(PID.TID 0000.0001) %MON surfExpan_theta_mean         =  -5.3642547219289E+00
(PID.TID 0000.0001) %MON surfExpan_salt_mean          =   0.0000000000000E+00
(PID.TID 0000.0001) %MON surfExpan_Heat_mean          =  -5.4101513331340E+02
(PID.TID 0000.0001) %MON En_Budget_T2PE_mean          =   1.5456343530622E+02
(PID.TID 0000.0001) // =======================================================
(PID.TID 0000.0001) // End MONITOR dynamic field statistics
(PID.TID 0000.0001) // =======================================================
 cg2d: Sum(rhs),rhsMax =   2.04003480774873E-15  2.47650463561339E+03
(PID.TID 0000.0001)                    cg2d_init_res =    5.13984169051549E-01
(PID.TID 0000.0001)                       cg2d_iters =    17
(PID.TID 0000.0001)                         cg2d_res =    1.79143106202902E-14
(PID.TID 0000.0001) // =======================================================
(PID.TID 0000.0001) // Begin MONITOR dynamic field statistics
(PID.TID 0000.0001) // =======================================================
(PID.TID 0000.0001) %MON time_tsnumber                =                    10
(PID.TID 0000.0001) %MON time_secondsf                =   1.2000000000000E+04
(PID.TID 0000.0001) %MON dynstat_eta_max              =   4.8674442991409E+03
(PID.TID 0000.0001) %MON dynstat_eta_min              =  -3.5540859436946E+03
(PID.TID 0000.0001) %MON dynstat_eta_mean             =  -1.8059789902301E-13
(PID.TID 0000.0001) %MON dynstat_eta_sd               =   2.8002957943868E+03
(PID.TID 0000.0001) %MON dynstat_eta_del2             =   7.6443069087270E+00
(PID.TID 0000.0001) %MON dynstat_uvel_max             =   1.9991772058577E+01
(PID.TID 0000.0001) %MON dynstat_uvel_min             =  -2.0855475413153E+00
(PID.TID 0000.0001) %MON dynstat_uvel_mean            =   5.2695850966234E+00
(PID.TID 0000.0001) %MON dynstat_uvel_sd              =   5.9121507144754E+00
(PID.TID 0000.0001) %MON dynstat_uvel_del2            =   4.1813115595957E-02
(PID.TID 0000.0001) %MON dynstat_vvel_max             =   2.9178771848195E+01
(PID.TID 0000.0001) %MON dynstat_vvel_min             =  -2.9178771305267E+01
(PID.TID 0000.0001) %MON dynstat_vvel_mean            =   1.1220320755389E-07
(PID.TID 0000.0001) %MON dynstat_vvel_sd              =   1.1134787786836E+01
(PID.TID 0000.0001) %MON dynstat_vvel_del2            =   3.8285798061048E-02
(PID.TID 0000.0001) %MON dynstat_wvel_max             =   4.7178920814758E-01
(PID.TID 0000.0001) %MON dynstat_wvel_min             =  -4.3072886888805E-01
(PID.TID 0000.0001) %MON dynstat_wvel_mean            =   5.2173277246047E-19
(PID.TID 0000.0001) %MON dynstat_wvel_sd              =   2.6838406542051E-01
(PID.TID 0000.0001) %MON dynstat_wvel_del2            =   1.3995580507851E-03
(PID.TID 0000.0001) %MON dynstat_theta_max            =   4.2545066093649E+02
(PID.TID 0000.0001) %MON dynstat_theta_min            =   2.5504444692852E+02
(PID.TID 0000.0001) %MON dynstat_theta_mean           =   3.1920198105706E+02
(PID.TID 0000.0001) %MON dynstat_theta_sd             =   4.5317701733412E+01
(PID.TID 0000.0001) %MON dynstat_theta_del2           =   4.6966625706647E-02
(PID.TID 0000.0001) %MON dynstat_salt_max             =   0.0000000000000E+00
(PID.TID 0000.0001) %MON dynstat_salt_min             =   0.0000000000000E+00
(PID.TID 0000.0001) %MON dynstat_salt_mean            =   0.0000000000000E+00
(PID.TID 0000.0001) %MON dynstat_salt_sd              =   0.0000000000000E+00
(PID.TID 0000.0001) %MON dynstat_salt_del2            =   0.0000000000000E+00
(PID.TID 0000.0001) %MON advcfl_uvel_max              =   7.5937620807689E-06
(PID.TID 0000.0001) %MON advcfl_vvel_max              =   1.1197960294057E-01
(PID.TID 0000.0001) %MON advcfl_wvel_max              =   1.1035742024380E-01
(PID.TID 0000.0001) %MON advcfl_W_hf_max              =   1.1322940995542E-01
(PID.TID 0000.0001) %MON pe_b_mean                    =   3.9208282680301E+01
(PID.TID 0000.0001) %MON ke_max                       =   4.3868529981471E+06
(PID.TID 0000.0001) %MON ke_mean                      =   9.3343476645109E+01
(PID.TID 0000.0001) %MON ke_vol                       =   1.7486817826145E+22
(PID.TID 0000.0001) %MON vort_r_min                   =  -2.7229882788145E-01
(PID.TID 0000.0001) %MON vort_r_max                   =   2.7229870313275E-01
(PID.TID 0000.0001) %MON vort_a_mean                  =  -9.0084305589680E-14
(PID.TID 0000.0001) %MON vort_a_sd                    =   3.6770375898581E-04
(PID.TID 0000.0001) %MON vort_p_mean                  =  -9.0084304366247E-14
(PID.TID 0000.0001) %MON vort_p_sd                    =   3.6770375898581E-04
(PID.TID 0000.0001) %MON surfExpan_theta_mean         =  -5.0681742758476E+00
(PID.TID 0000.0001) %MON surfExpan_salt_mean          =   0.0000000000000E+00
(PID.TID 0000.0001) %MON surfExpan_Heat_mean          =  -5.1115376201175E+02
(PID.TID 0000.0001) %MON En_Budget_T2PE_mean          =   1.5018885021987E+02
(PID.TID 0000.0001) // =======================================================
(PID.TID 0000.0001) // End MONITOR dynamic field statistics
(PID.TID 0000.0001) // =======================================================
objf_test       314.8    1   31    1 TILE     1   31    1    1
objf_test       629.6    2   31    1 TILE     2   31    1    1
objf_test       944.7    1   32    1 TILE     1   32    1    1
objf_test      1259.8    2   32    1 TILE     2   32    1    1
objf_test      1574.9    1   33    1 TILE     1   33    1    1
objf_test      1890.0    2   33    1 TILE     2   33    1    1
objf_test      2204.8    1   34    1 TILE     1   34    1    1
objf_test      2519.6    2   34    1 TILE     2   34    1    1
objf_test      2833.8    1   35    1 TILE     1   35    1    1
objf_test      3148.0    2   35    1 TILE     2   35    1    1
objf_test      3461.4    1   36    1 TILE     1   36    1    1
objf_test      3774.8    2   36    1 TILE     2   36    1    1
objf_test      4087.0    1   37    1 TILE     1   37    1    1
objf_test      4399.2    2   37    1 TILE     2   37    1    1
objf_test      4710.1    1   38    1 TILE     1   38    1    1
objf_test      5020.9    2   38    1 TILE     2   38    1    1
objf_test      5330.1    1   39    1 TILE     1   39    1    1
objf_test      5639.3    2   39    1 TILE     2   39    1    1
  --> objf_test(bi,bj)   =  626.587786
  --> objf_tracer(bi,bj) =  0.
  --> objf_atl(bi,bj)    =  0.
  local fc =   626.587786
  global fc =   626.587786
 ph-check fcpertplus =   626.587786
(PID.TID 0000.0001)  MDSREADFIELD: opening file: xx_theta.0000000000.001.001.data
 ph-check fcpertminus =   626.587786
(PID.TID 0000.0001)  MDSREADFIELD: opening file: xx_theta.0000000000.001.001.data
(PID.TID 0000.0001) %MON En_BudgetfCori_max           =   1.4540029928789E-04
(PID.TID 0000.0001) %MON En_BudgetfCori_min           =  -1.4540029928789E-04
(PID.TID 0000.0001) %MON En_BudgetfCori_mean          =   0.0000000000000E+00
(PID.TID 0000.0001) %MON En_BudgetfCori_sd            =   1.0284451245737E-04
(PID.TID 0000.0001) %MON En_BudgetfCoriG_max          =   1.4526891053949E-04
(PID.TID 0000.0001) %MON En_BudgetfCoriG_min          =  -1.4544410433286E-04
(PID.TID 0000.0001) %MON En_BudgetfCoriG_mean         =  -2.3086365767121E-06
(PID.TID 0000.0001) %MON En_BudgetfCoriG_sd           =   1.0363181330709E-04
(PID.TID 0000.0001) %MON En_BudgetfCoriCos_max        =   1.4540029928789E-04
(PID.TID 0000.0001) %MON En_BudgetfCoriCos_min        =   3.5693770017430E-06
(PID.TID 0000.0001) %MON En_BudgetfCoriCos_mean       =   9.2601889431869E-05
(PID.TID 0000.0001) %MON En_BudgetfCoriCos_sd         =   4.4742416298653E-05
(PID.TID 0000.0001) // CG2D normalisation factor =          0.2278126663032464164969763E-09
(PID.TID 0000.0001) 
(PID.TID 0000.0001) // =======================================================
(PID.TID 0000.0001) // Field Initial Temperature at iteration          1
(PID.TID 0000.0001) // CMIN =          2.550364452389422E+02
(PID.TID 0000.0001) // CMAX =          3.154764877049333E+02
(PID.TID 0000.0001) // CINT =          2.238520091333006E+00
(PID.TID 0000.0001) // SYMBOLS (CMIN->CMAX): -abcdefghijklmnopqrstuvwxyz+
(PID.TID 0000.0001) //                  0.0: .
(PID.TID 0000.0001) // RANGE I (Lo:Hi:Step):(   1:   2:   1)
(PID.TID 0000.0001) // RANGE J (Lo:Hi:Step):(  64:   1:  -1)
(PID.TID 0000.0001) // RANGE K (Lo:Hi:Step):(   1:   1:   1)
(PID.TID 0000.0001) // =======================================================
(PID.TID 0000.0001) K =   1
(PID.TID 0000.0001) 
(PID.TID 0000.0001) |--J--|12
(PID.TID 0000.0001)     64 --
(PID.TID 0000.0001)     63 --
(PID.TID 0000.0001)     62 --
(PID.TID 0000.0001)     61 aa
(PID.TID 0000.0001)     60 aa
(PID.TID 0000.0001)     59 bb
(PID.TID 0000.0001)     58 cc
(PID.TID 0000.0001)     57 cc
(PID.TID 0000.0001)     56 dd
(PID.TID 0000.0001)     55 ee
(PID.TID 0000.0001)     54 gg
(PID.TID 0000.0001)     53 hh
(PID.TID 0000.0001)     52 ii
(PID.TID 0000.0001)     51 jj
(PID.TID 0000.0001)     50 ll
(PID.TID 0000.0001)     49 mm
(PID.TID 0000.0001)     48 nn
(PID.TID 0000.0001)     47 oo
(PID.TID 0000.0001)     46 qq
(PID.TID 0000.0001)     45 rr
(PID.TID 0000.0001)     44 ss
(PID.TID 0000.0001)     43 tt
(PID.TID 0000.0001)     42 vv
(PID.TID 0000.0001)     41 ww
(PID.TID 0000.0001)     40 xx
(PID.TID 0000.0001)     39 xx
(PID.TID 0000.0001)     38 yy
(PID.TID 0000.0001)     37 zz
(PID.TID 0000.0001)     36 zz
(PID.TID 0000.0001)     35 ++
(PID.TID 0000.0001)     34 ++
(PID.TID 0000.0001)     33 ++
(PID.TID 0000.0001)     32 ++
(PID.TID 0000.0001)     31 ++
(PID.TID 0000.0001)     30 ++
(PID.TID 0000.0001)     29 zz
(PID.TID 0000.0001)     28 zz
(PID.TID 0000.0001)     27 yy
(PID.TID 0000.0001)     26 xx
(PID.TID 0000.0001)     25 xx
(PID.TID 0000.0001)     24 ww
(PID.TID 0000.0001)     23 vv
(PID.TID 0000.0001)     22 tt
(PID.TID 0000.0001)     21 ss
(PID.TID 0000.0001)     20 rr
(PID.TID 0000.0001)     19 qq
(PID.TID 0000.0001)     18 oo
(PID.TID 0000.0001)     17 nn
(PID.TID 0000.0001)     16 mm
(PID.TID 0000.0001)     15 ll
(PID.TID 0000.0001)     14 jj
(PID.TID 0000.0001)     13 ii
(PID.TID 0000.0001)     12 hh
(PID.TID 0000.0001)     11 gg
(PID.TID 0000.0001)     10 ee
(PID.TID 0000.0001)      9 dd
(PID.TID 0000.0001)      8 cc
(PID.TID 0000.0001)      7 cc
(PID.TID 0000.0001)      6 bb
(PID.TID 0000.0001)      5 aa
(PID.TID 0000.0001)      4 aa
(PID.TID 0000.0001)      3 --
(PID.TID 0000.0001)      2 --
(PID.TID 0000.0001)      1 --
(PID.TID 0000.0001) // =======================================================
(PID.TID 0000.0001) // END OF FIELD                                          =
(PID.TID 0000.0001) // =======================================================
(PID.TID 0000.0001) 
(PID.TID 0000.0001) // =======================================================
(PID.TID 0000.0001) // Field Initial Salinity at iteration          1
(PID.TID 0000.0001) // CMIN =          1.000000000000000E+32
(PID.TID 0000.0001) // CMAX =         -1.000000000000000E+32
(PID.TID 0000.0001) // CINT =          0.000000000000000E+00
(PID.TID 0000.0001) // SYMBOLS (CMIN->CMAX): -abcdefghijklmnopqrstuvwxyz+
(PID.TID 0000.0001) //                  0.0: .
(PID.TID 0000.0001) // RANGE I (Lo:Hi:Step):(   1:   2:   1)
(PID.TID 0000.0001) // RANGE J (Lo:Hi:Step):(  64:   1:  -1)
(PID.TID 0000.0001) // RANGE K (Lo:Hi:Step):(   1:   1:   1)
(PID.TID 0000.0001) // =======================================================
(PID.TID 0000.0001) // =======================================================
(PID.TID 0000.0001) // END OF FIELD                                          =
(PID.TID 0000.0001) // =======================================================
(PID.TID 0000.0001) 
(PID.TID 0000.0001) Start initial hydrostatic pressure computation
(PID.TID 0000.0001) Pressure is predetermined for buoyancyRelation ATMOSPHERIC
(PID.TID 0000.0001) 
(PID.TID 0000.0001)  MDSREADFIELD: opening file: xx_theta.0000000000.001.001.data
(PID.TID 0000.0001)  MDSREADFIELD: opening file: xx_salt.0000000000.001.001.data
(PID.TID 0000.0001)  MDSREADFIELD: opening file: xx_diffkr.0000000000.001.001.data
(PID.TID 0000.0001) // =======================================================
(PID.TID 0000.0001) // Model current state
(PID.TID 0000.0001) // =======================================================
(PID.TID 0000.0001) 
(PID.TID 0000.0001) // =======================================================
(PID.TID 0000.0001) // Begin MONITOR dynamic field statistics
(PID.TID 0000.0001) // =======================================================
(PID.TID 0000.0001) %MON time_tsnumber                =                     0
(PID.TID 0000.0001) %MON time_secondsf                =   0.0000000000000E+00
(PID.TID 0000.0001) %MON dynstat_eta_max              =   0.0000000000000E+00
(PID.TID 0000.0001) %MON dynstat_eta_min              =   0.0000000000000E+00
(PID.TID 0000.0001) %MON dynstat_eta_mean             =   0.0000000000000E+00
(PID.TID 0000.0001) %MON dynstat_eta_sd               =   0.0000000000000E+00
(PID.TID 0000.0001) %MON dynstat_eta_del2             =   0.0000000000000E+00
(PID.TID 0000.0001) %MON dynstat_uvel_max             =   0.0000000000000E+00
(PID.TID 0000.0001) %MON dynstat_uvel_min             =   0.0000000000000E+00
(PID.TID 0000.0001) %MON dynstat_uvel_mean            =   0.0000000000000E+00
(PID.TID 0000.0001) %MON dynstat_uvel_sd              =   0.0000000000000E+00
(PID.TID 0000.0001) %MON dynstat_uvel_del2            =   0.0000000000000E+00
(PID.TID 0000.0001) %MON dynstat_vvel_max             =   0.0000000000000E+00
(PID.TID 0000.0001) %MON dynstat_vvel_min             =   0.0000000000000E+00
(PID.TID 0000.0001) %MON dynstat_vvel_mean            =   0.0000000000000E+00
(PID.TID 0000.0001) %MON dynstat_vvel_sd              =   0.0000000000000E+00
(PID.TID 0000.0001) %MON dynstat_vvel_del2            =   0.0000000000000E+00
(PID.TID 0000.0001) %MON dynstat_wvel_max             =   0.0000000000000E+00
(PID.TID 0000.0001) %MON dynstat_wvel_min             =   0.0000000000000E+00
(PID.TID 0000.0001) %MON dynstat_wvel_mean            =   0.0000000000000E+00
(PID.TID 0000.0001) %MON dynstat_wvel_sd              =   0.0000000000000E+00
(PID.TID 0000.0001) %MON dynstat_wvel_del2            =   0.0000000000000E+00
(PID.TID 0000.0001) %MON dynstat_theta_max            =   4.1921910192279E+02
(PID.TID 0000.0001) %MON dynstat_theta_min            =   2.5502644523894E+02
(PID.TID 0000.0001) %MON dynstat_theta_mean           =   3.1867742578822E+02
(PID.TID 0000.0001) %MON dynstat_theta_sd             =   4.5642507984285E+01
(PID.TID 0000.0001) %MON dynstat_theta_del2           =   4.0241168714763E-02
(PID.TID 0000.0001) %MON dynstat_salt_max             =   0.0000000000000E+00
(PID.TID 0000.0001) %MON dynstat_salt_min             =   0.0000000000000E+00
(PID.TID 0000.0001) %MON dynstat_salt_mean            =   0.0000000000000E+00
(PID.TID 0000.0001) %MON dynstat_salt_sd              =   0.0000000000000E+00
(PID.TID 0000.0001) %MON dynstat_salt_del2            =   0.0000000000000E+00
(PID.TID 0000.0001) %MON advcfl_uvel_max              =   0.0000000000000E+00
(PID.TID 0000.0001) %MON advcfl_vvel_max              =   0.0000000000000E+00
(PID.TID 0000.0001) %MON advcfl_wvel_max              =   0.0000000000000E+00
(PID.TID 0000.0001) %MON advcfl_W_hf_max              =   0.0000000000000E+00
(PID.TID 0000.0001) %MON pe_b_mean                    =   0.0000000000000E+00
(PID.TID 0000.0001) %MON ke_max                       =   0.0000000000000E+00
(PID.TID 0000.0001) %MON ke_mean                      =   0.0000000000000E+00
(PID.TID 0000.0001) %MON ke_vol                       =   1.7486817826145E+22
(PID.TID 0000.0001) %MON vort_r_min                   =   0.0000000000000E+00
(PID.TID 0000.0001) %MON vort_r_max                   =   0.0000000000000E+00
(PID.TID 0000.0001) %MON vort_a_mean                  =  -2.9209451854128E-21
(PID.TID 0000.0001) %MON vort_a_sd                    =   8.3955319514376E-05
(PID.TID 0000.0001) %MON vort_p_mean                  =   4.8186785874352E-22
(PID.TID 0000.0001) %MON vort_p_sd                    =   8.3955319514376E-05
(PID.TID 0000.0001) %MON surfExpan_theta_mean         =   0.0000000000000E+00
(PID.TID 0000.0001) %MON surfExpan_salt_mean          =   0.0000000000000E+00
(PID.TID 0000.0001) %MON surfExpan_Heat_mean          =   0.0000000000000E+00
(PID.TID 0000.0001) %MON En_Budget_T2PE_mean          =   0.0000000000000E+00
(PID.TID 0000.0001) // =======================================================
(PID.TID 0000.0001) // End MONITOR dynamic field statistics
(PID.TID 0000.0001) // =======================================================
 cg2d: Sum(rhs),rhsMax =  -2.08166817117217E-15  8.97359314695382E+01
(PID.TID 0000.0001)                    cg2d_init_res =    3.34521731075648E+00
(PID.TID 0000.0001)                       cg2d_iters =    19
(PID.TID 0000.0001)                         cg2d_res =    4.03622013755897E-14
(PID.TID 0000.0001) // =======================================================
(PID.TID 0000.0001) // Begin MONITOR dynamic field statistics
(PID.TID 0000.0001) // =======================================================
(PID.TID 0000.0001) %MON time_tsnumber                =                     1
(PID.TID 0000.0001) %MON time_secondsf                =   1.2000000000000E+03
(PID.TID 0000.0001) %MON dynstat_eta_max              =   1.4348145476122E+02
(PID.TID 0000.0001) %MON dynstat_eta_min              =  -9.2440656691674E+01
(PID.TID 0000.0001) %MON dynstat_eta_mean             =  -1.5745712155148E-15
(PID.TID 0000.0001) %MON dynstat_eta_sd               =   7.6540730958422E+01
(PID.TID 0000.0001) %MON dynstat_eta_del2             =   1.0992341148153E+00
(PID.TID 0000.0001) %MON dynstat_uvel_max             =   5.8178082828567E-16
(PID.TID 0000.0001) %MON dynstat_uvel_min             =  -5.8178082828567E-16
(PID.TID 0000.0001) %MON dynstat_uvel_mean            =   0.0000000000000E+00
(PID.TID 0000.0001) %MON dynstat_uvel_sd              =   2.0509294330567E-17
(PID.TID 0000.0001) %MON dynstat_uvel_del2            =   3.1107456603978E-17
(PID.TID 0000.0001) %MON dynstat_vvel_max             =   5.2726881150810E+00
(PID.TID 0000.0001) %MON dynstat_vvel_min             =  -5.2726881150985E+00
(PID.TID 0000.0001) %MON dynstat_vvel_mean            =  -4.6281411119319E-07
(PID.TID 0000.0001) %MON dynstat_vvel_sd              =   1.9374165389226E+00
(PID.TID 0000.0001) %MON dynstat_vvel_del2            =   1.5137701005909E-02
(PID.TID 0000.0001) %MON dynstat_wvel_max             =   1.1956787896762E-01
(PID.TID 0000.0001) %MON dynstat_wvel_min             =  -7.7033880576390E-02
(PID.TID 0000.0001) %MON dynstat_wvel_mean            =   5.7335587659197E-19
(PID.TID 0000.0001) %MON dynstat_wvel_sd              =   5.1844204037208E-02
(PID.TID 0000.0001) %MON dynstat_wvel_del2            =   1.6735908486620E-03
(PID.TID 0000.0001) %MON dynstat_theta_max            =   4.1955348096026E+02
(PID.TID 0000.0001) %MON dynstat_theta_min            =   2.5503177648385E+02
(PID.TID 0000.0001) %MON dynstat_theta_mean           =   3.1869076251844E+02
(PID.TID 0000.0001) %MON dynstat_theta_sd             =   4.5634438961636E+01
(PID.TID 0000.0001) %MON dynstat_theta_del2           =   4.2535901282320E-02
(PID.TID 0000.0001) %MON dynstat_salt_max             =   0.0000000000000E+00
(PID.TID 0000.0001) %MON dynstat_salt_min             =   0.0000000000000E+00
(PID.TID 0000.0001) %MON dynstat_salt_mean            =   0.0000000000000E+00
(PID.TID 0000.0001) %MON dynstat_salt_sd              =   0.0000000000000E+00
(PID.TID 0000.0001) %MON dynstat_salt_del2            =   0.0000000000000E+00
(PID.TID 0000.0001) %MON advcfl_uvel_max              =   4.1450806994966E-21
(PID.TID 0000.0001) %MON advcfl_vvel_max              =   2.0235036780504E-02
(PID.TID 0000.0001) %MON advcfl_wvel_max              =   2.8696290952229E-02
(PID.TID 0000.0001) %MON advcfl_W_hf_max              =   2.8510619767813E-02
(PID.TID 0000.0001) %MON pe_b_mean                    =   2.9292417478247E-02
(PID.TID 0000.0001) %MON ke_max                       =   1.3026550730302E+01
(PID.TID 0000.0001) %MON ke_mean                      =   1.8764145522678E+00
(PID.TID 0000.0001) %MON ke_vol                       =   1.7486817826145E+22
(PID.TID 0000.0001) %MON vort_r_min                   =  -2.6057310976391E-21
(PID.TID 0000.0001) %MON vort_r_max                   =   3.3085756823206E-21
(PID.TID 0000.0001) %MON vort_a_mean                  =  -2.9209451854128E-21
(PID.TID 0000.0001) %MON vort_a_sd                    =   8.3955319514376E-05
(PID.TID 0000.0001) %MON vort_p_mean                  =   4.8186785874352E-22
(PID.TID 0000.0001) %MON vort_p_sd                    =   8.3955319514376E-05
(PID.TID 0000.0001) %MON surfExpan_theta_mean         =  -1.1110641865501E+00
(PID.TID 0000.0001) %MON surfExpan_salt_mean          =   0.0000000000000E+00
(PID.TID 0000.0001) %MON surfExpan_Heat_mean          =  -1.1205704616316E+02
(PID.TID 0000.0001) %MON En_Budget_T2PE_mean          =   3.0624065831093E+01
(PID.TID 0000.0001) // =======================================================
(PID.TID 0000.0001) // End MONITOR dynamic field statistics
(PID.TID 0000.0001) // =======================================================
 cg2d: Sum(rhs),rhsMax =   1.59594559789866E-15  1.89073450912132E+02
(PID.TID 0000.0001)                    cg2d_init_res =    2.90222799201892E+00
(PID.TID 0000.0001)                       cg2d_iters =    18
(PID.TID 0000.0001)                         cg2d_res =    5.23848076340098E-14
(PID.TID 0000.0001) // =======================================================
(PID.TID 0000.0001) // Begin MONITOR dynamic field statistics
(PID.TID 0000.0001) // =======================================================
(PID.TID 0000.0001) %MON time_tsnumber                =                     2
(PID.TID 0000.0001) %MON time_secondsf                =   2.4000000000000E+03
(PID.TID 0000.0001) %MON dynstat_eta_max              =   4.2453705775047E+02
(PID.TID 0000.0001) %MON dynstat_eta_min              =  -2.7278743290319E+02
(PID.TID 0000.0001) %MON dynstat_eta_mean             =  -2.9490557122918E-15
(PID.TID 0000.0001) %MON dynstat_eta_sd               =   2.2413792538838E+02
(PID.TID 0000.0001) %MON dynstat_eta_del2             =   2.1382731090108E+00
(PID.TID 0000.0001) %MON dynstat_uvel_max             =   8.7088558281836E-01
(PID.TID 0000.0001) %MON dynstat_uvel_min             =   3.8323449779855E-05
(PID.TID 0000.0001) %MON dynstat_uvel_mean            =   2.3378380484882E-01
(PID.TID 0000.0001) %MON dynstat_uvel_sd              =   2.2937807792821E-01
(PID.TID 0000.0001) %MON dynstat_uvel_del2            =   2.4521559571853E-03
(PID.TID 0000.0001) %MON dynstat_vvel_max             =   1.0228690360855E+01
(PID.TID 0000.0001) %MON dynstat_vvel_min             =  -1.0228690361107E+01
(PID.TID 0000.0001) %MON dynstat_vvel_mean            =  -5.9857417376749E-07
(PID.TID 0000.0001) %MON dynstat_vvel_sd              =   3.8107084355039E+00
(PID.TID 0000.0001) %MON dynstat_vvel_del2            =   2.5137234889663E-02
(PID.TID 0000.0001) %MON dynstat_wvel_max             =   2.3421300249175E-01
(PID.TID 0000.0001) %MON dynstat_wvel_min             =  -1.5028898017624E-01
(PID.TID 0000.0001) %MON dynstat_wvel_mean            =   8.4704345535347E-19
(PID.TID 0000.0001) %MON dynstat_wvel_sd              =   9.9653315290136E-02
(PID.TID 0000.0001) %MON dynstat_wvel_del2            =   1.8870494722953E-03
(PID.TID 0000.0001) %MON dynstat_theta_max            =   4.2021985667295E+02
(PID.TID 0000.0001) %MON dynstat_theta_min            =   2.5503206838760E+02
(PID.TID 0000.0001) %MON dynstat_theta_mean           =   3.1872449286252E+02
(PID.TID 0000.0001) %MON dynstat_theta_sd             =   4.5614070101536E+01
(PID.TID 0000.0001) %MON dynstat_theta_del2           =   4.3855133224857E-02
(PID.TID 0000.0001) %MON dynstat_salt_max             =   0.0000000000000E+00
(PID.TID 0000.0001) %MON dynstat_salt_min             =   0.0000000000000E+00
(PID.TID 0000.0001) %MON dynstat_salt_mean            =   0.0000000000000E+00
(PID.TID 0000.0001) %MON dynstat_salt_sd              =   0.0000000000000E+00
(PID.TID 0000.0001) %MON dynstat_salt_del2            =   0.0000000000000E+00
(PID.TID 0000.0001) %MON advcfl_uvel_max              =   3.0877917412654E-07
(PID.TID 0000.0001) %MON advcfl_vvel_max              =   3.9254725702570E-02
(PID.TID 0000.0001) %MON advcfl_wvel_max              =   5.6211120598019E-02
(PID.TID 0000.0001) %MON advcfl_W_hf_max              =   5.5955010972984E-02
(PID.TID 0000.0001) %MON pe_b_mean                    =   2.5118904798703E-01
(PID.TID 0000.0001) %MON ke_max                       =   8.3726296508272E+03
(PID.TID 0000.0001) %MON ke_mean                      =   7.3129313607407E+00
(PID.TID 0000.0001) %MON ke_vol                       =   1.7486817826145E+22
(PID.TID 0000.0001) %MON vort_r_min                   =  -1.1708191967806E-02
(PID.TID 0000.0001) %MON vort_r_max                   =   1.1708767949918E-02
(PID.TID 0000.0001) %MON vort_a_mean                  =   4.5757361772723E-14
(PID.TID 0000.0001) %MON vort_a_sd                    =   8.5416157611695E-05
(PID.TID 0000.0001) %MON vort_p_mean                  =   4.5757363680173E-14
(PID.TID 0000.0001) %MON vort_p_sd                    =   8.5416157611696E-05
(PID.TID 0000.0001) %MON surfExpan_theta_mean         =  -2.1724103472043E+00
(PID.TID 0000.0001) %MON surfExpan_salt_mean          =   0.0000000000000E+00
(PID.TID 0000.0001) %MON surfExpan_Heat_mean          =  -2.1909975094947E+02
(PID.TID 0000.0001) %MON En_Budget_T2PE_mean          =   5.9772685852503E+01
(PID.TID 0000.0001) // =======================================================
(PID.TID 0000.0001) // End MONITOR dynamic field statistics
(PID.TID 0000.0001) // =======================================================
 cg2d: Sum(rhs),rhsMax =   3.55965257270441E-15  3.69983935898368E+02
(PID.TID 0000.0001)                    cg2d_init_res =    2.11083769222867E+00
(PID.TID 0000.0001)                       cg2d_iters =    18
(PID.TID 0000.0001)                         cg2d_res =    3.26523347257409E-14
(PID.TID 0000.0001) // =======================================================
(PID.TID 0000.0001) // Begin MONITOR dynamic field statistics
(PID.TID 0000.0001) // =======================================================
(PID.TID 0000.0001) %MON time_tsnumber                =                     3
(PID.TID 0000.0001) %MON time_secondsf                =   3.6000000000000E+03
(PID.TID 0000.0001) %MON dynstat_eta_max              =   8.2464323792501E+02
(PID.TID 0000.0001) %MON dynstat_eta_min              =  -5.3368676356697E+02
(PID.TID 0000.0001) %MON dynstat_eta_mean             =  -8.1729953054303E-15
(PID.TID 0000.0001) %MON dynstat_eta_sd               =   4.3546361009661E+02
(PID.TID 0000.0001) %MON dynstat_eta_del2             =   2.5720254475378E+00
(PID.TID 0000.0001) %MON dynstat_uvel_max             =   2.2294211939197E+00
(PID.TID 0000.0001) %MON dynstat_uvel_min             =  -1.8620007243448E-02
(PID.TID 0000.0001) %MON dynstat_uvel_mean            =   6.0431519269313E-01
(PID.TID 0000.0001) %MON dynstat_uvel_sd              =   5.9909584791955E-01
(PID.TID 0000.0001) %MON dynstat_uvel_del2            =   6.1771279765960E-03
(PID.TID 0000.0001) %MON dynstat_vvel_max             =   1.4565248770865E+01
(PID.TID 0000.0001) %MON dynstat_vvel_min             =  -1.4565248772690E+01
(PID.TID 0000.0001) %MON dynstat_vvel_mean            =  -5.8244771734535E-07
(PID.TID 0000.0001) %MON dynstat_vvel_sd              =   5.5335228510052E+00
(PID.TID 0000.0001) %MON dynstat_vvel_del2            =   3.0428140543380E-02
(PID.TID 0000.0001) %MON dynstat_wvel_max             =   3.3342181681220E-01
(PID.TID 0000.0001) %MON dynstat_wvel_min             =  -2.1753228033557E-01
(PID.TID 0000.0001) %MON dynstat_wvel_mean            =   2.1135534601993E-18
(PID.TID 0000.0001) %MON dynstat_wvel_sd              =   1.4266622668649E-01
(PID.TID 0000.0001) %MON dynstat_wvel_del2            =   1.9144044940549E-03
(PID.TID 0000.0001) %MON dynstat_theta_max            =   4.2091730514592E+02
(PID.TID 0000.0001) %MON dynstat_theta_min            =   2.5503234608388E+02
(PID.TID 0000.0001) %MON dynstat_theta_mean           =   3.1876890126519E+02
(PID.TID 0000.0001) %MON dynstat_theta_sd             =   4.5587071521468E+01
(PID.TID 0000.0001) %MON dynstat_theta_del2           =   4.5686614680073E-02
(PID.TID 0000.0001) %MON dynstat_salt_max             =   0.0000000000000E+00
(PID.TID 0000.0001) %MON dynstat_salt_min             =   0.0000000000000E+00
(PID.TID 0000.0001) %MON dynstat_salt_mean            =   0.0000000000000E+00
(PID.TID 0000.0001) %MON dynstat_salt_sd              =   0.0000000000000E+00
(PID.TID 0000.0001) %MON dynstat_salt_del2            =   0.0000000000000E+00
(PID.TID 0000.0001) %MON advcfl_uvel_max              =   8.1415783430612E-07
(PID.TID 0000.0001) %MON advcfl_vvel_max              =   5.5897170133884E-02
(PID.TID 0000.0001) %MON advcfl_wvel_max              =   8.0021236034928E-02
(PID.TID 0000.0001) %MON advcfl_W_hf_max              =   7.9849821643439E-02
(PID.TID 0000.0001) %MON pe_b_mean                    =   9.4814277859186E-01
(PID.TID 0000.0001) %MON ke_max                       =   5.4649248911982E+04
(PID.TID 0000.0001) %MON ke_mean                      =   1.5668955945011E+01
(PID.TID 0000.0001) %MON ke_vol                       =   1.7486817826145E+22
(PID.TID 0000.0001) %MON vort_r_min                   =  -3.0658880973280E-02
(PID.TID 0000.0001) %MON vort_r_max                   =   3.0658947536092E-02
(PID.TID 0000.0001) %MON vort_a_mean                  =   5.2437566749066E-14
(PID.TID 0000.0001) %MON vort_a_sd                    =   9.3006679200939E-05
(PID.TID 0000.0001) %MON vort_p_mean                  =   5.2437557601844E-14
(PID.TID 0000.0001) %MON vort_p_sd                    =   9.3006679200939E-05
(PID.TID 0000.0001) %MON surfExpan_theta_mean         =  -3.1263880405982E+00
(PID.TID 0000.0001) %MON surfExpan_salt_mean          =   0.0000000000000E+00
(PID.TID 0000.0001) %MON surfExpan_Heat_mean          =  -3.1531374445348E+02
(PID.TID 0000.0001) %MON En_Budget_T2PE_mean          =   8.5968281762840E+01
(PID.TID 0000.0001) // =======================================================
(PID.TID 0000.0001) // End MONITOR dynamic field statistics
(PID.TID 0000.0001) // =======================================================
 cg2d: Sum(rhs),rhsMax =  -6.10622663543836E-16  6.00188020663927E+02
(PID.TID 0000.0001)                    cg2d_init_res =    1.63582193935219E+00
(PID.TID 0000.0001)                       cg2d_iters =    18
(PID.TID 0000.0001)                         cg2d_res =    1.85360549804783E-14
(PID.TID 0000.0001) // =======================================================
(PID.TID 0000.0001) // Begin MONITOR dynamic field statistics
(PID.TID 0000.0001) // =======================================================
(PID.TID 0000.0001) %MON time_tsnumber                =                     4
(PID.TID 0000.0001) %MON time_secondsf                =   4.8000000000000E+03
(PID.TID 0000.0001) %MON dynstat_eta_max              =   1.3214623699813E+03
(PID.TID 0000.0001) %MON dynstat_eta_min              =  -8.6541627901311E+02
(PID.TID 0000.0001) %MON dynstat_eta_mean             =  -5.9420302214531E-14
(PID.TID 0000.0001) %MON dynstat_eta_sd               =   7.0179731666824E+02
(PID.TID 0000.0001) %MON dynstat_eta_del2             =   3.1001754066318E+00
(PID.TID 0000.0001) %MON dynstat_uvel_max             =   4.0093965041826E+00
(PID.TID 0000.0001) %MON dynstat_uvel_min             =  -7.2580075435613E-02
(PID.TID 0000.0001) %MON dynstat_uvel_mean            =   1.0932714814425E+00
(PID.TID 0000.0001) %MON dynstat_uvel_sd              =   1.0964636068450E+00
(PID.TID 0000.0001) %MON dynstat_uvel_del2            =   1.0567573543649E-02
(PID.TID 0000.0001) %MON dynstat_vvel_max             =   1.8296281264820E+01
(PID.TID 0000.0001) %MON dynstat_vvel_min             =  -1.8296281273709E+01
(PID.TID 0000.0001) %MON dynstat_vvel_mean            =  -5.3115643574526E-07
(PID.TID 0000.0001) %MON dynstat_vvel_sd              =   7.0706038718781E+00
(PID.TID 0000.0001) %MON dynstat_vvel_del2            =   3.3581231868910E-02
(PID.TID 0000.0001) %MON dynstat_wvel_max             =   4.1437343151541E-01
(PID.TID 0000.0001) %MON dynstat_wvel_min             =  -2.7771168429293E-01
(PID.TID 0000.0001) %MON dynstat_wvel_mean            =   1.7841402661703E-18
(PID.TID 0000.0001) %MON dynstat_wvel_sd              =   1.8057779830912E-01
(PID.TID 0000.0001) %MON dynstat_wvel_del2            =   1.7880803314026E-03
(PID.TID 0000.0001) %MON dynstat_theta_max            =   4.2160298209269E+02
(PID.TID 0000.0001) %MON dynstat_theta_min            =   2.5503268198219E+02
(PID.TID 0000.0001) %MON dynstat_theta_mean           =   3.1882219237531E+02
(PID.TID 0000.0001) %MON dynstat_theta_sd             =   4.5554485536958E+01
(PID.TID 0000.0001) %MON dynstat_theta_del2           =   4.6837024388981E-02
(PID.TID 0000.0001) %MON dynstat_salt_max             =   0.0000000000000E+00
(PID.TID 0000.0001) %MON dynstat_salt_min             =   0.0000000000000E+00
(PID.TID 0000.0001) %MON dynstat_salt_mean            =   0.0000000000000E+00
(PID.TID 0000.0001) %MON dynstat_salt_sd              =   0.0000000000000E+00
(PID.TID 0000.0001) %MON dynstat_salt_del2            =   0.0000000000000E+00
(PID.TID 0000.0001) %MON advcfl_uvel_max              =   1.4930922054253E-06
(PID.TID 0000.0001) %MON advcfl_vvel_max              =   7.0215783000665E-02
(PID.TID 0000.0001) %MON advcfl_wvel_max              =   9.9366640543705E-02
(PID.TID 0000.0001) %MON advcfl_W_hf_max              =   9.9449623563697E-02
(PID.TID 0000.0001) %MON pe_b_mean                    =   2.4625973684137E+00
(PID.TID 0000.0001) %MON ke_max                       =   1.7658678134859E+05
(PID.TID 0000.0001) %MON ke_mean                      =   2.6190557920150E+01
(PID.TID 0000.0001) %MON ke_vol                       =   1.7486817826145E+22
(PID.TID 0000.0001) %MON vort_r_min                   =  -5.5817903681565E-02
(PID.TID 0000.0001) %MON vort_r_max                   =   5.5817620584823E-02
(PID.TID 0000.0001) %MON vort_a_mean                  =   4.9149226153937E-14
(PID.TID 0000.0001) %MON vort_a_sd                    =   1.1052249017785E-04
(PID.TID 0000.0001) %MON vort_p_mean                  =   4.9149224548233E-14
(PID.TID 0000.0001) %MON vort_p_sd                    =   1.1052249017785E-04
(PID.TID 0000.0001) %MON surfExpan_theta_mean         =  -3.9465818098724E+00
(PID.TID 0000.0001) %MON surfExpan_salt_mean          =   0.0000000000000E+00
(PID.TID 0000.0001) %MON surfExpan_Heat_mean          =  -3.9803487990082E+02
(PID.TID 0000.0001) %MON En_Budget_T2PE_mean          =   1.0858604541072E+02
(PID.TID 0000.0001) // =======================================================
(PID.TID 0000.0001) // End MONITOR dynamic field statistics
(PID.TID 0000.0001) // =======================================================
 cg2d: Sum(rhs),rhsMax =  -2.44249065417534E-15  8.71578060599242E+02
(PID.TID 0000.0001)                    cg2d_init_res =    1.31214037596482E+00
(PID.TID 0000.0001)                       cg2d_iters =    17
(PID.TID 0000.0001)                         cg2d_res =    6.51648925491435E-14
(PID.TID 0000.0001) // =======================================================
(PID.TID 0000.0001) // Begin MONITOR dynamic field statistics
(PID.TID 0000.0001) // =======================================================
(PID.TID 0000.0001) %MON time_tsnumber                =                     5
(PID.TID 0000.0001) %MON time_secondsf                =   6.0000000000000E+03
(PID.TID 0000.0001) %MON dynstat_eta_max              =   1.8890983633420E+03
(PID.TID 0000.0001) %MON dynstat_eta_min              =  -1.2560243582834E+03
(PID.TID 0000.0001) %MON dynstat_eta_mean             =  -5.1963329694063E-14
(PID.TID 0000.0001) %MON dynstat_eta_sd               =   1.0127025273636E+03
(PID.TID 0000.0001) %MON dynstat_eta_del2             =   3.6962939619413E+00
(PID.TID 0000.0001) %MON dynstat_uvel_max             =   6.1544675390482E+00
(PID.TID 0000.0001) %MON dynstat_uvel_min             =  -1.8651685946415E-01
(PID.TID 0000.0001) %MON dynstat_uvel_mean            =   1.6817329730776E+00
(PID.TID 0000.0001) %MON dynstat_uvel_sd              =   1.7094970423960E+00
(PID.TID 0000.0001) %MON dynstat_uvel_del2            =   1.5548703339218E-02
(PID.TID 0000.0001) %MON dynstat_vvel_max             =   2.1567476136927E+01
(PID.TID 0000.0001) %MON dynstat_vvel_min             =  -2.1567476153906E+01
(PID.TID 0000.0001) %MON dynstat_vvel_mean            =  -4.7021644893119E-07
(PID.TID 0000.0001) %MON dynstat_vvel_sd              =   8.3873316929440E+00
(PID.TID 0000.0001) %MON dynstat_vvel_del2            =   3.5367060775937E-02
(PID.TID 0000.0001) %MON dynstat_wvel_max             =   4.7516592688639E-01
(PID.TID 0000.0001) %MON dynstat_wvel_min             =  -3.2874760551794E-01
(PID.TID 0000.0001) %MON dynstat_wvel_mean            =   2.9736202391072E-19
(PID.TID 0000.0001) %MON dynstat_wvel_sd              =   2.1261942075697E-01
(PID.TID 0000.0001) %MON dynstat_wvel_del2            =   1.6156821512714E-03
(PID.TID 0000.0001) %MON dynstat_theta_max            =   4.2224749969091E+02
(PID.TID 0000.0001) %MON dynstat_theta_min            =   2.5503318285662E+02
(PID.TID 0000.0001) %MON dynstat_theta_mean           =   3.1888226702964E+02
(PID.TID 0000.0001) %MON dynstat_theta_sd             =   4.5517529684380E+01
(PID.TID 0000.0001) %MON dynstat_theta_del2           =   4.7263986647367E-02
(PID.TID 0000.0001) %MON dynstat_salt_max             =   0.0000000000000E+00
(PID.TID 0000.0001) %MON dynstat_salt_min             =   0.0000000000000E+00
(PID.TID 0000.0001) %MON dynstat_salt_mean            =   0.0000000000000E+00
(PID.TID 0000.0001) %MON dynstat_salt_sd              =   0.0000000000000E+00
(PID.TID 0000.0001) %MON dynstat_salt_del2            =   0.0000000000000E+00
(PID.TID 0000.0001) %MON advcfl_uvel_max              =   2.3236056563217E-06
(PID.TID 0000.0001) %MON advcfl_vvel_max              =   8.2769673401928E-02
(PID.TID 0000.0001) %MON advcfl_wvel_max              =   1.1353004335358E-01
(PID.TID 0000.0001) %MON advcfl_W_hf_max              =   1.1403982245273E-01
(PID.TID 0000.0001) %MON pe_b_mean                    =   5.1278320446430E+00
(PID.TID 0000.0001) %MON ke_max                       =   4.1593071820704E+05
(PID.TID 0000.0001) %MON ke_mean                      =   3.8042195054347E+01
(PID.TID 0000.0001) %MON ke_vol                       =   1.7486817826145E+22
(PID.TID 0000.0001) %MON vort_r_min                   =  -8.6227986406864E-02
(PID.TID 0000.0001) %MON vort_r_max                   =   8.6227715472923E-02
(PID.TID 0000.0001) %MON vort_a_mean                  =   4.8867115637802E-14
(PID.TID 0000.0001) %MON vort_a_sd                    =   1.3862106432316E-04
(PID.TID 0000.0001) %MON vort_p_mean                  =   4.8867111881349E-14
(PID.TID 0000.0001) %MON vort_p_sd                    =   1.3862106432316E-04
(PID.TID 0000.0001) %MON surfExpan_theta_mean         =  -4.6074924710196E+00
(PID.TID 0000.0001) %MON surfExpan_salt_mean          =   0.0000000000000E+00
(PID.TID 0000.0001) %MON surfExpan_Heat_mean          =  -4.6469142176620E+02
(PID.TID 0000.0001) %MON En_Budget_T2PE_mean          =   1.2705884772766E+02
(PID.TID 0000.0001) // =======================================================
(PID.TID 0000.0001) // End MONITOR dynamic field statistics
(PID.TID 0000.0001) // =======================================================
 cg2d: Sum(rhs),rhsMax =  -5.89805981832114E-16  1.17463757356403E+03
(PID.TID 0000.0001)                    cg2d_init_res =    1.07483846109988E+00
(PID.TID 0000.0001)                       cg2d_iters =    17
(PID.TID 0000.0001)                         cg2d_res =    4.83623190428625E-14
(PID.TID 0000.0001) // =======================================================
(PID.TID 0000.0001) // Begin MONITOR dynamic field statistics
(PID.TID 0000.0001) // =======================================================
(PID.TID 0000.0001) %MON time_tsnumber                =                     6
(PID.TID 0000.0001) %MON time_secondsf                =   7.2000000000000E+03
(PID.TID 0000.0001) %MON dynstat_eta_max              =   2.4998532817306E+03
(PID.TID 0000.0001) %MON dynstat_eta_min              =  -1.6915056490683E+03
(PID.TID 0000.0001) %MON dynstat_eta_mean             =  -6.7731129344137E-14
(PID.TID 0000.0001) %MON dynstat_eta_sd               =   1.3563938964316E+03
(PID.TID 0000.0001) %MON dynstat_eta_del2             =   4.2695677923903E+00
(PID.TID 0000.0001) %MON dynstat_uvel_max             =   8.6004656599157E+00
(PID.TID 0000.0001) %MON dynstat_uvel_min             =  -3.6890561832053E-01
(PID.TID 0000.0001) %MON dynstat_uvel_mean            =   2.3473621138213E+00
(PID.TID 0000.0001) %MON dynstat_uvel_sd              =   2.4231951535332E+00
(PID.TID 0000.0001) %MON dynstat_uvel_del2            =   2.0771488326397E-02
(PID.TID 0000.0001) %MON dynstat_vvel_max             =   2.4351166815467E+01
(PID.TID 0000.0001) %MON dynstat_vvel_min             =  -2.4351166865622E+01
(PID.TID 0000.0001) %MON dynstat_vvel_mean            =  -4.0227877224240E-07
(PID.TID 0000.0001) %MON dynstat_vvel_sd              =   9.4576612660489E+00
(PID.TID 0000.0001) %MON dynstat_vvel_del2            =   3.6061424146498E-02
(PID.TID 0000.0001) %MON dynstat_wvel_max             =   5.1345769842438E-01
(PID.TID 0000.0001) %MON dynstat_wvel_min             =  -3.6907331894019E-01
(PID.TID 0000.0001) %MON dynstat_wvel_mean            =   1.6094111581383E-18
(PID.TID 0000.0001) %MON dynstat_wvel_sd              =   2.3810218097265E-01
(PID.TID 0000.0001) %MON dynstat_wvel_del2            =   1.4839442445769E-03
(PID.TID 0000.0001) %MON dynstat_theta_max            =   4.2283844408209E+02
(PID.TID 0000.0001) %MON dynstat_theta_min            =   2.5503397811028E+02
(PID.TID 0000.0001) %MON dynstat_theta_mean           =   3.1894682973942E+02
(PID.TID 0000.0001) %MON dynstat_theta_sd             =   4.5477572000989E+01
(PID.TID 0000.0001) %MON dynstat_theta_del2           =   4.7260283061994E-02
(PID.TID 0000.0001) %MON dynstat_salt_max             =   0.0000000000000E+00
(PID.TID 0000.0001) %MON dynstat_salt_min             =   0.0000000000000E+00
(PID.TID 0000.0001) %MON dynstat_salt_mean            =   0.0000000000000E+00
(PID.TID 0000.0001) %MON dynstat_salt_sd              =   0.0000000000000E+00
(PID.TID 0000.0001) %MON dynstat_salt_del2            =   0.0000000000000E+00
(PID.TID 0000.0001) %MON advcfl_uvel_max              =   3.2767525255552E-06
(PID.TID 0000.0001) %MON advcfl_vvel_max              =   9.3452665209433E-02
(PID.TID 0000.0001) %MON advcfl_wvel_max              =   1.2215337699724E-01
(PID.TID 0000.0001) %MON advcfl_W_hf_max              =   1.2322984762185E-01
(PID.TID 0000.0001) %MON pe_b_mean                    =   9.1990220113839E+00
(PID.TID 0000.0001) %MON ke_max                       =   8.1208791473463E+05
(PID.TID 0000.0001) %MON ke_mean                      =   5.0406260774734E+01
(PID.TID 0000.0001) %MON ke_vol                       =   1.7486817826145E+22
(PID.TID 0000.0001) %MON vort_r_min                   =  -1.2071180001551E-01
(PID.TID 0000.0001) %MON vort_r_max                   =   1.2071168223456E-01
(PID.TID 0000.0001) %MON vort_a_mean                  =   5.2839115106703E-14
(PID.TID 0000.0001) %MON vort_a_sd                    =   1.7554367220222E-04
(PID.TID 0000.0001) %MON vort_p_mean                  =   5.2839105406383E-14
(PID.TID 0000.0001) %MON vort_p_sd                    =   1.7554367220222E-04
(PID.TID 0000.0001) %MON surfExpan_theta_mean         =  -5.0893905634401E+00
(PID.TID 0000.0001) %MON surfExpan_salt_mean          =   0.0000000000000E+00
(PID.TID 0000.0001) %MON surfExpan_Heat_mean          =  -5.1329354344557E+02
(PID.TID 0000.0001) %MON En_Budget_T2PE_mean          =   1.4099763345423E+02
(PID.TID 0000.0001) // =======================================================
(PID.TID 0000.0001) // End MONITOR dynamic field statistics
(PID.TID 0000.0001) // =======================================================
 cg2d: Sum(rhs),rhsMax =   1.07552855510562E-15  1.49858166122902E+03
(PID.TID 0000.0001)                    cg2d_init_res =    8.91221148123627E-01
(PID.TID 0000.0001)                       cg2d_iters =    17
(PID.TID 0000.0001)                         cg2d_res =    3.35316303387599E-14
(PID.TID 0000.0001) // =======================================================
(PID.TID 0000.0001) // Begin MONITOR dynamic field statistics
(PID.TID 0000.0001) // =======================================================
(PID.TID 0000.0001) %MON time_tsnumber                =                     7
(PID.TID 0000.0001) %MON time_secondsf                =   8.4000000000000E+03
(PID.TID 0000.0001) %MON dynstat_eta_max              =   3.1263628033572E+03
(PID.TID 0000.0001) %MON dynstat_eta_min              =  -2.1561100330420E+03
(PID.TID 0000.0001) %MON dynstat_eta_mean             =  -5.9739372273788E-14
(PID.TID 0000.0001) %MON dynstat_eta_sd               =   1.7201580716290E+03
(PID.TID 0000.0001) %MON dynstat_eta_del2             =   5.1193898137225E+00
(PID.TID 0000.0001) %MON dynstat_uvel_max             =   1.1278497153525E+01
(PID.TID 0000.0001) %MON dynstat_uvel_min             =  -6.3493936785759E-01
(PID.TID 0000.0001) %MON dynstat_uvel_mean            =   3.0654515714815E+00
(PID.TID 0000.0001) %MON dynstat_uvel_sd              =   3.2201769512705E+00
(PID.TID 0000.0001) %MON dynstat_uvel_del2            =   2.6015849087453E-02
(PID.TID 0000.0001) %MON dynstat_vvel_max             =   2.6475554239387E+01
(PID.TID 0000.0001) %MON dynstat_vvel_min             =  -2.6475554363116E+01
(PID.TID 0000.0001) %MON dynstat_vvel_mean            =  -3.2914334749299E-07
(PID.TID 0000.0001) %MON dynstat_vvel_sd              =   1.0265791474331E+01
(PID.TID 0000.0001) %MON dynstat_vvel_del2            =   3.6541325886782E-02
(PID.TID 0000.0001) %MON dynstat_wvel_max             =   5.2928545231603E-01
(PID.TID 0000.0001) %MON dynstat_wvel_min             =  -3.9736250592780E-01
(PID.TID 0000.0001) %MON dynstat_wvel_mean            =   2.6838140998458E-18
(PID.TID 0000.0001) %MON dynstat_wvel_sd              =   2.5652802587552E-01
(PID.TID 0000.0001) %MON dynstat_wvel_del2            =   1.4149623644927E-03
(PID.TID 0000.0001) %MON dynstat_theta_max            =   4.2350902294240E+02
(PID.TID 0000.0001) %MON dynstat_theta_min            =   2.5503518068438E+02
(PID.TID 0000.0001) %MON dynstat_theta_mean           =   3.1901347423593E+02
(PID.TID 0000.0001) %MON dynstat_theta_sd             =   4.5436085625053E+01
(PID.TID 0000.0001) %MON dynstat_theta_del2           =   4.7000357759367E-02
(PID.TID 0000.0001) %MON dynstat_salt_max             =   0.0000000000000E+00
(PID.TID 0000.0001) %MON dynstat_salt_min             =   0.0000000000000E+00
(PID.TID 0000.0001) %MON dynstat_salt_mean            =   0.0000000000000E+00
(PID.TID 0000.0001) %MON dynstat_salt_sd              =   0.0000000000000E+00
(PID.TID 0000.0001) %MON dynstat_salt_del2            =   0.0000000000000E+00
(PID.TID 0000.0001) %MON advcfl_uvel_max              =   4.3183412797967E-06
(PID.TID 0000.0001) %MON advcfl_vvel_max              =   1.0160544386986E-01
(PID.TID 0000.0001) %MON advcfl_wvel_max              =   1.2530402623938E-01
(PID.TID 0000.0001) %MON advcfl_W_hf_max              =   1.2702850855585E-01
(PID.TID 0000.0001) %MON pe_b_mean                    =   1.4794718956952E+01
(PID.TID 0000.0001) %MON ke_max                       =   1.3964166309937E+06
(PID.TID 0000.0001) %MON ke_mean                      =   6.2566915001089E+01
(PID.TID 0000.0001) %MON ke_vol                       =   1.7486817826145E+22
(PID.TID 0000.0001) %MON vort_r_min                   =  -1.5794866870267E-01
(PID.TID 0000.0001) %MON vort_r_max                   =   1.5794869072677E-01
(PID.TID 0000.0001) %MON vort_a_mean                  =   5.9841024048316E-14
(PID.TID 0000.0001) %MON vort_a_sd                    =   2.1895749855748E-04
(PID.TID 0000.0001) %MON vort_p_mean                  =   5.9841025770732E-14
(PID.TID 0000.0001) %MON vort_p_sd                    =   2.1895749855748E-04
(PID.TID 0000.0001) %MON surfExpan_theta_mean         =  -5.3791303141322E+00
(PID.TID 0000.0001) %MON surfExpan_salt_mean          =   0.0000000000000E+00
(PID.TID 0000.0001) %MON surfExpan_Heat_mean          =  -5.4251542010368E+02
(PID.TID 0000.0001) %MON En_Budget_T2PE_mean          =   1.5020527522387E+02
(PID.TID 0000.0001) // =======================================================
(PID.TID 0000.0001) // End MONITOR dynamic field statistics
(PID.TID 0000.0001) // =======================================================
 cg2d: Sum(rhs),rhsMax =   1.99146255042137E-15  1.83164888972626E+03
(PID.TID 0000.0001)                    cg2d_init_res =    7.43136348680040E-01
(PID.TID 0000.0001)                       cg2d_iters =    17
(PID.TID 0000.0001)                         cg2d_res =    1.98946353094173E-14
(PID.TID 0000.0001) // =======================================================
(PID.TID 0000.0001) // Begin MONITOR dynamic field statistics
(PID.TID 0000.0001) // =======================================================
(PID.TID 0000.0001) %MON time_tsnumber                =                     8
(PID.TID 0000.0001) %MON time_secondsf                =   9.6000000000000E+03
(PID.TID 0000.0001) %MON dynstat_eta_max              =   3.7435579668185E+03
(PID.TID 0000.0001) %MON dynstat_eta_min              =  -2.6328837632321E+03
(PID.TID 0000.0001) %MON dynstat_eta_mean             =  -1.1389798302937E-13
(PID.TID 0000.0001) %MON dynstat_eta_sd               =   2.0907968838766E+03
(PID.TID 0000.0001) %MON dynstat_eta_del2             =   5.9697930149301E+00
(PID.TID 0000.0001) %MON dynstat_uvel_max             =   1.4117347642163E+01
(PID.TID 0000.0001) %MON dynstat_uvel_min             =  -1.0001353721131E+00
(PID.TID 0000.0001) %MON dynstat_uvel_mean            =   3.8097552197543E+00
(PID.TID 0000.0001) %MON dynstat_uvel_sd              =   4.0811550032285E+00
(PID.TID 0000.0001) %MON dynstat_uvel_del2            =   3.1304351726660E-02
(PID.TID 0000.0001) %MON dynstat_vvel_max             =   2.7915329833996E+01
(PID.TID 0000.0001) %MON dynstat_vvel_min             =  -2.7915330095807E+01
(PID.TID 0000.0001) %MON dynstat_vvel_mean            =  -2.5407724864088E-07
(PID.TID 0000.0001) %MON dynstat_vvel_sd              =   1.0807280639493E+01
(PID.TID 0000.0001) %MON dynstat_vvel_del2            =   3.6943860112846E-02
(PID.TID 0000.0001) %MON dynstat_wvel_max             =   5.2423565318020E-01
(PID.TID 0000.0001) %MON dynstat_wvel_min             =  -4.1270451755775E-01
(PID.TID 0000.0001) %MON dynstat_wvel_mean            =   1.0986036037019E-18
(PID.TID 0000.0001) %MON dynstat_wvel_sd              =   2.6764379498399E-01
(PID.TID 0000.0001) %MON dynstat_wvel_del2            =   1.3820095401401E-03
(PID.TID 0000.0001) %MON dynstat_theta_max            =   4.2420420404298E+02
(PID.TID 0000.0001) %MON dynstat_theta_min            =   2.5503684635594E+02
(PID.TID 0000.0001) %MON dynstat_theta_mean           =   3.1907976968351E+02
(PID.TID 0000.0001) %MON dynstat_theta_sd             =   4.5394600159745E+01
(PID.TID 0000.0001) %MON dynstat_theta_del2           =   4.7163748880385E-02
(PID.TID 0000.0001) %MON dynstat_salt_max             =   0.0000000000000E+00
(PID.TID 0000.0001) %MON dynstat_salt_min             =   0.0000000000000E+00
(PID.TID 0000.0001) %MON dynstat_salt_mean            =   0.0000000000000E+00
(PID.TID 0000.0001) %MON dynstat_salt_sd              =   0.0000000000000E+00
(PID.TID 0000.0001) %MON dynstat_salt_del2            =   0.0000000000000E+00
(PID.TID 0000.0001) %MON advcfl_uvel_max              =   5.4108461119829E-06
(PID.TID 0000.0001) %MON advcfl_vvel_max              =   1.0713088255895E-01
(PID.TID 0000.0001) %MON advcfl_wvel_max              =   1.2344101420447E-01
(PID.TID 0000.0001) %MON advcfl_W_hf_max              =   1.2581655676325E-01
(PID.TID 0000.0001) %MON pe_b_mean                    =   2.1857158048141E+01
(PID.TID 0000.0001) %MON ke_max                       =   2.1877091813987E+06
(PID.TID 0000.0001) %MON ke_mean                      =   7.3973525954138E+01
(PID.TID 0000.0001) %MON ke_vol                       =   1.7486817826145E+22
(PID.TID 0000.0001) %MON vort_r_min                   =  -1.9654774277861E-01
(PID.TID 0000.0001) %MON vort_r_max                   =   1.9654784698572E-01
(PID.TID 0000.0001) %MON vort_a_mean                  =   6.8852346300804E-14
(PID.TID 0000.0001) %MON vort_a_sd                    =   2.6670430353622E-04
(PID.TID 0000.0001) %MON vort_p_mean                  =   6.8852335783112E-14
(PID.TID 0000.0001) %MON vort_p_sd                    =   2.6670430353622E-04
(PID.TID 0000.0001) %MON surfExpan_theta_mean         =  -5.4704833506306E+00
(PID.TID 0000.0001) %MON surfExpan_salt_mean          =   0.0000000000000E+00
(PID.TID 0000.0001) %MON surfExpan_Heat_mean          =  -5.5172888549295E+02
(PID.TID 0000.0001) %MON En_Budget_T2PE_mean          =   1.5467270389054E+02
(PID.TID 0000.0001) // =======================================================
(PID.TID 0000.0001) // End MONITOR dynamic field statistics
(PID.TID 0000.0001) // =======================================================
 cg2d: Sum(rhs),rhsMax =  -8.95117313604032E-16  2.16161545410165E+03
(PID.TID 0000.0001)                    cg2d_init_res =    6.19717394337600E-01
(PID.TID 0000.0001)                       cg2d_iters =    17
(PID.TID 0000.0001)                         cg2d_res =    1.77780454649453E-14
(PID.TID 0000.0001) // =======================================================
(PID.TID 0000.0001) // Begin MONITOR dynamic field statistics
(PID.TID 0000.0001) // =======================================================
(PID.TID 0000.0001) %MON time_tsnumber                =                     9
(PID.TID 0000.0001) %MON time_secondsf                =   1.0800000000000E+04
(PID.TID 0000.0001) %MON dynstat_eta_max              =   4.3299065716362E+03
(PID.TID 0000.0001) %MON dynstat_eta_min              =  -3.1044711493802E+03
(PID.TID 0000.0001) %MON dynstat_eta_mean             =  -8.0995923562625E-14
(PID.TID 0000.0001) %MON dynstat_eta_sd               =   2.4550951218213E+03
(PID.TID 0000.0001) %MON dynstat_eta_del2             =   6.8144287778721E+00
(PID.TID 0000.0001) %MON dynstat_uvel_max             =   1.7045337062856E+01
(PID.TID 0000.0001) %MON dynstat_uvel_min             =  -1.4793090106790E+00
(PID.TID 0000.0001) %MON dynstat_uvel_mean            =   4.5533559957988E+00
(PID.TID 0000.0001) %MON dynstat_uvel_sd              =   4.9855340509437E+00
(PID.TID 0000.0001) %MON dynstat_uvel_del2            =   3.6655865757142E-02
(PID.TID 0000.0001) %MON dynstat_vvel_max             =   2.8780894232186E+01
(PID.TID 0000.0001) %MON dynstat_vvel_min             =  -2.8780894547610E+01
(PID.TID 0000.0001) %MON dynstat_vvel_mean            =  -1.8067880467370E-07
(PID.TID 0000.0001) %MON dynstat_vvel_sd              =   1.1089991664173E+01
(PID.TID 0000.0001) %MON dynstat_vvel_del2            =   3.7450613031550E-02
(PID.TID 0000.0001) %MON dynstat_wvel_max             =   5.0136747632859E-01
(PID.TID 0000.0001) %MON dynstat_wvel_min             =  -4.2656620905363E-01
(PID.TID 0000.0001) %MON dynstat_wvel_mean            =   6.3819839793469E-18
(PID.TID 0000.0001) %MON dynstat_wvel_sd              =   2.7148172712898E-01
(PID.TID 0000.0001) %MON dynstat_wvel_del2            =   1.3680059158711E-03
(PID.TID 0000.0001) %MON dynstat_theta_max            =   4.2484926064054E+02
(PID.TID 0000.0001) %MON dynstat_theta_min            =   2.5503894752042E+02
(PID.TID 0000.0001) %MON dynstat_theta_mean           =   3.1914334680553E+02
(PID.TID 0000.0001) %MON dynstat_theta_sd             =   4.5354647388037E+01
(PID.TID 0000.0001) %MON dynstat_theta_del2           =   4.7210107755056E-02
(PID.TID 0000.0001) %MON dynstat_salt_max             =   0.0000000000000E+00
(PID.TID 0000.0001) %MON dynstat_salt_min             =   0.0000000000000E+00
(PID.TID 0000.0001) %MON dynstat_salt_mean            =   0.0000000000000E+00
(PID.TID 0000.0001) %MON dynstat_salt_sd              =   0.0000000000000E+00
(PID.TID 0000.0001) %MON dynstat_salt_del2            =   0.0000000000000E+00
(PID.TID 0000.0001) %MON advcfl_uvel_max              =   6.5155238719462E-06
(PID.TID 0000.0001) %MON advcfl_vvel_max              =   1.1045266608488E-01
(PID.TID 0000.0001) %MON advcfl_wvel_max              =   1.1781822382362E-01
(PID.TID 0000.0001) %MON advcfl_W_hf_max              =   1.2032819431886E-01
(PID.TID 0000.0001) %MON pe_b_mean                    =   3.0137460285953E+01
(PID.TID 0000.0001) %MON ke_max                       =   3.1891515701020E+06
(PID.TID 0000.0001) %MON ke_mean                      =   8.4278198199974E+01
(PID.TID 0000.0001) %MON ke_vol                       =   1.7486817826145E+22
(PID.TID 0000.0001) %MON vort_r_min                   =  -2.3511497955421E-01
(PID.TID 0000.0001) %MON vort_r_max                   =   2.3511511318090E-01
(PID.TID 0000.0001) %MON vort_a_mean                  =   7.9154686348145E-14
(PID.TID 0000.0001) %MON vort_a_sd                    =   3.1686516717944E-04
(PID.TID 0000.0001) %MON vort_p_mean                  =   7.9154692253520E-14
(PID.TID 0000.0001) %MON vort_p_sd                    =   3.1686516717944E-04
(PID.TID 0000.0001) %MON surfExpan_theta_mean         =  -5.3642578956994E+00
(PID.TID 0000.0001) %MON surfExpan_salt_mean          =   0.0000000000000E+00
(PID.TID 0000.0001) %MON surfExpan_Heat_mean          =  -5.4101545340593E+02
(PID.TID 0000.0001) %MON En_Budget_T2PE_mean          =   1.5456344868462E+02
(PID.TID 0000.0001) // =======================================================
(PID.TID 0000.0001) // End MONITOR dynamic field statistics
(PID.TID 0000.0001) // =======================================================
 cg2d: Sum(rhs),rhsMax =   1.93595139919012E-15  2.47650463658181E+03
(PID.TID 0000.0001)                    cg2d_init_res =    5.13984248722281E-01
(PID.TID 0000.0001)                       cg2d_iters =    17
(PID.TID 0000.0001)                         cg2d_res =    1.79153576841993E-14
(PID.TID 0000.0001) // =======================================================
(PID.TID 0000.0001) // Begin MONITOR dynamic field statistics
(PID.TID 0000.0001) // =======================================================
(PID.TID 0000.0001) %MON time_tsnumber                =                    10
(PID.TID 0000.0001) %MON time_secondsf                =   1.2000000000000E+04
(PID.TID 0000.0001) %MON dynstat_eta_max              =   4.8675461505631E+03
(PID.TID 0000.0001) %MON dynstat_eta_min              =  -3.5540859459787E+03
(PID.TID 0000.0001) %MON dynstat_eta_mean             =  -2.8490123529229E-13
(PID.TID 0000.0001) %MON dynstat_eta_sd               =   2.8002960052048E+03
(PID.TID 0000.0001) %MON dynstat_eta_del2             =   7.6443059873589E+00
(PID.TID 0000.0001) %MON dynstat_uvel_max             =   1.9991772299445E+01
(PID.TID 0000.0001) %MON dynstat_uvel_min             =  -2.0855474163519E+00
(PID.TID 0000.0001) %MON dynstat_uvel_mean            =   5.2695864321501E+00
(PID.TID 0000.0001) %MON dynstat_uvel_sd              =   5.9121510184264E+00
(PID.TID 0000.0001) %MON dynstat_uvel_del2            =   4.1814115474041E-02
(PID.TID 0000.0001) %MON dynstat_vvel_max             =   2.9178771848175E+01
(PID.TID 0000.0001) %MON dynstat_vvel_min             =  -2.9178772391098E+01
(PID.TID 0000.0001) %MON dynstat_vvel_mean            =  -1.1220153572004E-07
(PID.TID 0000.0001) %MON dynstat_vvel_sd              =   1.1134788221504E+01
(PID.TID 0000.0001) %MON dynstat_vvel_del2            =   3.8286360391771E-02
(PID.TID 0000.0001) %MON dynstat_wvel_max             =   4.7179014874859E-01
(PID.TID 0000.0001) %MON dynstat_wvel_min             =  -4.3072886966498E-01
(PID.TID 0000.0001) %MON dynstat_wvel_mean            =   1.2762113279772E-18
(PID.TID 0000.0001) %MON dynstat_wvel_sd              =   2.6838408033977E-01
(PID.TID 0000.0001) %MON dynstat_wvel_del2            =   1.3996334737883E-03
(PID.TID 0000.0001) %MON dynstat_theta_max            =   4.2545066046778E+02
(PID.TID 0000.0001) %MON dynstat_theta_min            =   2.5504136618430E+02
(PID.TID 0000.0001) %MON dynstat_theta_mean           =   3.1920198073838E+02
(PID.TID 0000.0001) %MON dynstat_theta_sd             =   4.5317702210516E+01
(PID.TID 0000.0001) %MON dynstat_theta_del2           =   4.6966628563136E-02
(PID.TID 0000.0001) %MON dynstat_salt_max             =   0.0000000000000E+00
(PID.TID 0000.0001) %MON dynstat_salt_min             =   0.0000000000000E+00
(PID.TID 0000.0001) %MON dynstat_salt_mean            =   0.0000000000000E+00
(PID.TID 0000.0001) %MON dynstat_salt_sd              =   0.0000000000000E+00
(PID.TID 0000.0001) %MON dynstat_salt_del2            =   0.0000000000000E+00
(PID.TID 0000.0001) %MON advcfl_uvel_max              =   7.5941975380487E-06
(PID.TID 0000.0001) %MON advcfl_vvel_max              =   1.1197960502407E-01
(PID.TID 0000.0001) %MON advcfl_wvel_max              =   1.1035744401265E-01
(PID.TID 0000.0001) %MON advcfl_W_hf_max              =   1.1322963569966E-01
(PID.TID 0000.0001) %MON pe_b_mean                    =   3.9208288583831E+01
(PID.TID 0000.0001) %MON ke_max                       =   4.3868531038822E+06
(PID.TID 0000.0001) %MON ke_mean                      =   9.3343490319631E+01
(PID.TID 0000.0001) %MON ke_vol                       =   1.7486817826145E+22
(PID.TID 0000.0001) %MON vort_r_min                   =  -2.7229857851918E-01
(PID.TID 0000.0001) %MON vort_r_max                   =   2.7229870313275E-01
(PID.TID 0000.0001) %MON vort_a_mean                  =   9.0096374820872E-14
(PID.TID 0000.0001) %MON vort_a_sd                    =   3.6770372080391E-04
(PID.TID 0000.0001) %MON vort_p_mean                  =   9.0096380592615E-14
(PID.TID 0000.0001) %MON vort_p_sd                    =   3.6770372080391E-04
(PID.TID 0000.0001) %MON surfExpan_theta_mean         =  -5.0681770679842E+00
(PID.TID 0000.0001) %MON surfExpan_salt_mean          =   0.0000000000000E+00
(PID.TID 0000.0001) %MON surfExpan_Heat_mean          =  -5.1115404361436E+02
(PID.TID 0000.0001) %MON En_Budget_T2PE_mean          =   1.5018886124688E+02
(PID.TID 0000.0001) // =======================================================
(PID.TID 0000.0001) // End MONITOR dynamic field statistics
(PID.TID 0000.0001) // =======================================================
objf_test       314.8    1   31    1 TILE     1   31    1    1
objf_test       629.6    2   31    1 TILE     2   31    1    1
objf_test       944.7    1   32    1 TILE     1   32    1    1
objf_test      1259.8    2   32    1 TILE     2   32    1    1
objf_test      1574.9    1   33    1 TILE     1   33    1    1
objf_test      1890.0    2   33    1 TILE     2   33    1    1
objf_test      2204.8    1   34    1 TILE     1   34    1    1
objf_test      2519.6    2   34    1 TILE     2   34    1    1
objf_test      2833.8    1   35    1 TILE     1   35    1    1
objf_test      3148.0    2   35    1 TILE     2   35    1    1
objf_test      3461.4    1   36    1 TILE     1   36    1    1
objf_test      3774.8    2   36    1 TILE     2   36    1    1
objf_test      4087.0    1   37    1 TILE     1   37    1    1
objf_test      4399.2    2   37    1 TILE     2   37    1    1
objf_test      4710.1    1   38    1 TILE     1   38    1    1
objf_test      5020.9    2   38    1 TILE     2   38    1    1
objf_test      5330.1    1   39    1 TILE     1   39    1    1
objf_test      5639.3    2   39    1 TILE     2   39    1    1
  --> objf_test(bi,bj)   =  626.587786
  --> objf_tracer(bi,bj) =  0.
  --> objf_atl(bi,bj)    =  0.
  local fc =   626.587786
  global fc =   626.587786
(PID.TID 0000.0001)  MDSREADFIELD: opening file: xx_theta.0000000000.001.001.data
 grad-res -------------------------------
 grad-res     0    2    2    1    1   0.626587786E+03 0.626587786E+03 0.626587786E+03
 grad-res     0    2    2    2    0   0.153706239E-07 0.153647761E-07 0.380455061E-03
(PID.TID 0000.0001)       precision_grdchk_result TLM     6.26587786180309E+02     1.53706239497508E-08
 ph-grd  ierr ---------------------------
 ph-grd  ierr =  0, icomp =  2, ichknum =  2
(PID.TID 0000.0001)  MDSREADFIELD: opening file: g_xx_theta.0000000000.001.001.data
(PID.TID 0000.0001)  MDSREADFIELD: opening file: g_xx_theta.0000000000.001.001.data
(PID.TID 0000.0001) %MON En_BudgetfCori_max           =   1.4540029928789E-04
(PID.TID 0000.0001) %MON En_BudgetfCori_min           =  -1.4540029928789E-04
(PID.TID 0000.0001) %MON En_BudgetfCori_mean          =   0.0000000000000E+00
(PID.TID 0000.0001) %MON En_BudgetfCori_sd            =   1.0284451245737E-04
(PID.TID 0000.0001) %MON En_BudgetfCoriG_max          =   1.4526891053949E-04
(PID.TID 0000.0001) %MON En_BudgetfCoriG_min          =  -1.4544410433286E-04
(PID.TID 0000.0001) %MON En_BudgetfCoriG_mean         =  -2.3086365767121E-06
(PID.TID 0000.0001) %MON En_BudgetfCoriG_sd           =   1.0363181330709E-04
(PID.TID 0000.0001) %MON En_BudgetfCoriCos_max        =   1.4540029928789E-04
(PID.TID 0000.0001) %MON En_BudgetfCoriCos_min        =   3.5693770017430E-06
(PID.TID 0000.0001) %MON En_BudgetfCoriCos_mean       =   9.2601889431869E-05
(PID.TID 0000.0001) %MON En_BudgetfCoriCos_sd         =   4.4742416298653E-05
(PID.TID 0000.0001) // CG2D normalisation factor =          0.2278126663032464164969763E-09
(PID.TID 0000.0001) 
(PID.TID 0000.0001) // =======================================================
(PID.TID 0000.0001) // Field Initial Temperature at iteration          1
(PID.TID 0000.0001) // CMIN =          2.550364452389422E+02
(PID.TID 0000.0001) // CMAX =          3.154764877049333E+02
(PID.TID 0000.0001) // CINT =          2.238520091333006E+00
(PID.TID 0000.0001) // SYMBOLS (CMIN->CMAX): -abcdefghijklmnopqrstuvwxyz+
(PID.TID 0000.0001) //                  0.0: .
(PID.TID 0000.0001) // RANGE I (Lo:Hi:Step):(   1:   2:   1)
(PID.TID 0000.0001) // RANGE J (Lo:Hi:Step):(  64:   1:  -1)
(PID.TID 0000.0001) // RANGE K (Lo:Hi:Step):(   1:   1:   1)
(PID.TID 0000.0001) // =======================================================
(PID.TID 0000.0001) K =   1
(PID.TID 0000.0001) 
(PID.TID 0000.0001) |--J--|12
(PID.TID 0000.0001)     64 --
(PID.TID 0000.0001)     63 --
(PID.TID 0000.0001)     62 --
(PID.TID 0000.0001)     61 aa
(PID.TID 0000.0001)     60 aa
(PID.TID 0000.0001)     59 bb
(PID.TID 0000.0001)     58 cc
(PID.TID 0000.0001)     57 cc
(PID.TID 0000.0001)     56 dd
(PID.TID 0000.0001)     55 ee
(PID.TID 0000.0001)     54 gg
(PID.TID 0000.0001)     53 hh
(PID.TID 0000.0001)     52 ii
(PID.TID 0000.0001)     51 jj
(PID.TID 0000.0001)     50 ll
(PID.TID 0000.0001)     49 mm
(PID.TID 0000.0001)     48 nn
(PID.TID 0000.0001)     47 oo
(PID.TID 0000.0001)     46 qq
(PID.TID 0000.0001)     45 rr
(PID.TID 0000.0001)     44 ss
(PID.TID 0000.0001)     43 tt
(PID.TID 0000.0001)     42 vv
(PID.TID 0000.0001)     41 ww
(PID.TID 0000.0001)     40 xx
(PID.TID 0000.0001)     39 xx
(PID.TID 0000.0001)     38 yy
(PID.TID 0000.0001)     37 zz
(PID.TID 0000.0001)     36 zz
(PID.TID 0000.0001)     35 ++
(PID.TID 0000.0001)     34 ++
(PID.TID 0000.0001)     33 ++
(PID.TID 0000.0001)     32 ++
(PID.TID 0000.0001)     31 ++
(PID.TID 0000.0001)     30 ++
(PID.TID 0000.0001)     29 zz
(PID.TID 0000.0001)     28 zz
(PID.TID 0000.0001)     27 yy
(PID.TID 0000.0001)     26 xx
(PID.TID 0000.0001)     25 xx
(PID.TID 0000.0001)     24 ww
(PID.TID 0000.0001)     23 vv
(PID.TID 0000.0001)     22 tt
(PID.TID 0000.0001)     21 ss
(PID.TID 0000.0001)     20 rr
(PID.TID 0000.0001)     19 qq
(PID.TID 0000.0001)     18 oo
(PID.TID 0000.0001)     17 nn
(PID.TID 0000.0001)     16 mm
(PID.TID 0000.0001)     15 ll
(PID.TID 0000.0001)     14 jj
(PID.TID 0000.0001)     13 ii
(PID.TID 0000.0001)     12 hh
(PID.TID 0000.0001)     11 gg
(PID.TID 0000.0001)     10 ee
(PID.TID 0000.0001)      9 dd
(PID.TID 0000.0001)      8 cc
(PID.TID 0000.0001)      7 cc
(PID.TID 0000.0001)      6 bb
(PID.TID 0000.0001)      5 aa
(PID.TID 0000.0001)      4 aa
(PID.TID 0000.0001)      3 --
(PID.TID 0000.0001)      2 --
(PID.TID 0000.0001)      1 --
(PID.TID 0000.0001) // =======================================================
(PID.TID 0000.0001) // END OF FIELD                                          =
(PID.TID 0000.0001) // =======================================================
(PID.TID 0000.0001) 
(PID.TID 0000.0001) // =======================================================
(PID.TID 0000.0001) // Field Initial Salinity at iteration          1
(PID.TID 0000.0001) // CMIN =          1.000000000000000E+32
(PID.TID 0000.0001) // CMAX =         -1.000000000000000E+32
(PID.TID 0000.0001) // CINT =          0.000000000000000E+00
(PID.TID 0000.0001) // SYMBOLS (CMIN->CMAX): -abcdefghijklmnopqrstuvwxyz+
(PID.TID 0000.0001) //                  0.0: .
(PID.TID 0000.0001) // RANGE I (Lo:Hi:Step):(   1:   2:   1)
(PID.TID 0000.0001) // RANGE J (Lo:Hi:Step):(  64:   1:  -1)
(PID.TID 0000.0001) // RANGE K (Lo:Hi:Step):(   1:   1:   1)
(PID.TID 0000.0001) // =======================================================
(PID.TID 0000.0001) // =======================================================
(PID.TID 0000.0001) // END OF FIELD                                          =
(PID.TID 0000.0001) // =======================================================
(PID.TID 0000.0001) 
(PID.TID 0000.0001) Start initial hydrostatic pressure computation
(PID.TID 0000.0001) Pressure is predetermined for buoyancyRelation ATMOSPHERIC
(PID.TID 0000.0001) 
(PID.TID 0000.0001)  MDSREADFIELD: opening file: xx_theta.0000000000.001.001.data
(PID.TID 0000.0001)  MDSREADFIELD: opening file: g_xx_theta.0000000000.001.001.data
(PID.TID 0000.0001)  MDSREADFIELD: opening file: xx_salt.0000000000.001.001.data
(PID.TID 0000.0001)  MDSREADFIELD: opening file: g_xx_salt.0000000000.001.001.data
(PID.TID 0000.0001)  MDSREADFIELD: opening file: xx_diffkr.0000000000.001.001.data
(PID.TID 0000.0001)  MDSREADFIELD: opening file: g_xx_diffkr.0000000000.001.001.data
(PID.TID 0000.0001) // =======================================================
(PID.TID 0000.0001) // Model current state
(PID.TID 0000.0001) // =======================================================
(PID.TID 0000.0001) 
 cg2d: Sum(rhs),rhsMax =  -3.55618312575245E-16  1.69084505097336E+00
 cg2d: Sum(rhs),rhsMax =  -2.08166817117217E-15  8.97359314695382E+01
 cg2d: Sum(rhs),rhsMax =  -3.34670204644210E-14  2.11989658516449E+00
 cg2d: Sum(rhs),rhsMax =   2.56739074444567E-16  1.89073450912132E+02
 cg2d: Sum(rhs),rhsMax =  -1.75505285317343E-13  1.79314959577841E+00
 cg2d: Sum(rhs),rhsMax =   2.22044604925031E-15  3.69983935898362E+02
 cg2d: Sum(rhs),rhsMax =  -2.76859118743788E-13  1.30127353009227E+00
 cg2d: Sum(rhs),rhsMax =   1.99146255042137E-15  6.00188020663841E+02
 cg2d: Sum(rhs),rhsMax =  -4.30099445160456E-13  1.15655075874220E+00
 cg2d: Sum(rhs),rhsMax =   3.64985819345520E-15  8.71578060598605E+02
 cg2d: Sum(rhs),rhsMax =  -5.49023628715717E-13  1.08688856648730E+00
 cg2d: Sum(rhs),rhsMax =   9.29811783123569E-16  1.17463757356037E+03
 cg2d: Sum(rhs),rhsMax =  -6.67857883428722E-13  9.83451145284659E-01
 cg2d: Sum(rhs),rhsMax =   1.86656246015104E-15  1.49858166121228E+03
 cg2d: Sum(rhs),rhsMax =  -7.62644618803395E-13  8.79191562256865E-01
 cg2d: Sum(rhs),rhsMax =   2.18575157973078E-15  1.83164888966199E+03
 cg2d: Sum(rhs),rhsMax =  -8.01844456816618E-13  7.88111596370451E-01
 cg2d: Sum(rhs),rhsMax =   2.62290189567693E-15  2.16161545389010E+03
 cg2d: Sum(rhs),rhsMax =  -8.31641940142328E-13  7.11485090497721E-01
 cg2d: Sum(rhs),rhsMax =   3.72618602639818E-15  2.47650463597214E+03
(PID.TID 0000.0001)  MDSREADFIELD: opening file: g_xx_theta.0000000000.001.001.data
(PID.TID 0000.0001)  MDSREADFIELD: opening file: xx_theta.0000000000.001.001.data
(PID.TID 0000.0001) %MON En_BudgetfCori_max           =   1.4540029928789E-04
(PID.TID 0000.0001) %MON En_BudgetfCori_min           =  -1.4540029928789E-04
(PID.TID 0000.0001) %MON En_BudgetfCori_mean          =   0.0000000000000E+00
(PID.TID 0000.0001) %MON En_BudgetfCori_sd            =   1.0284451245737E-04
(PID.TID 0000.0001) %MON En_BudgetfCoriG_max          =   1.4526891053949E-04
(PID.TID 0000.0001) %MON En_BudgetfCoriG_min          =  -1.4544410433286E-04
(PID.TID 0000.0001) %MON En_BudgetfCoriG_mean         =  -2.3086365767121E-06
(PID.TID 0000.0001) %MON En_BudgetfCoriG_sd           =   1.0363181330709E-04
(PID.TID 0000.0001) %MON En_BudgetfCoriCos_max        =   1.4540029928789E-04
(PID.TID 0000.0001) %MON En_BudgetfCoriCos_min        =   3.5693770017430E-06
(PID.TID 0000.0001) %MON En_BudgetfCoriCos_mean       =   9.2601889431869E-05
(PID.TID 0000.0001) %MON En_BudgetfCoriCos_sd         =   4.4742416298653E-05
(PID.TID 0000.0001) // CG2D normalisation factor =          0.2278126663032464164969763E-09
(PID.TID 0000.0001) 
(PID.TID 0000.0001) // =======================================================
(PID.TID 0000.0001) // Field Initial Temperature at iteration          1
(PID.TID 0000.0001) // CMIN =          2.550364452389422E+02
(PID.TID 0000.0001) // CMAX =          3.154764877049333E+02
(PID.TID 0000.0001) // CINT =          2.238520091333006E+00
(PID.TID 0000.0001) // SYMBOLS (CMIN->CMAX): -abcdefghijklmnopqrstuvwxyz+
(PID.TID 0000.0001) //                  0.0: .
(PID.TID 0000.0001) // RANGE I (Lo:Hi:Step):(   1:   2:   1)
(PID.TID 0000.0001) // RANGE J (Lo:Hi:Step):(  64:   1:  -1)
(PID.TID 0000.0001) // RANGE K (Lo:Hi:Step):(   1:   1:   1)
(PID.TID 0000.0001) // =======================================================
(PID.TID 0000.0001) K =   1
(PID.TID 0000.0001) 
(PID.TID 0000.0001) |--J--|12
(PID.TID 0000.0001)     64 --
(PID.TID 0000.0001)     63 --
(PID.TID 0000.0001)     62 --
(PID.TID 0000.0001)     61 aa
(PID.TID 0000.0001)     60 aa
(PID.TID 0000.0001)     59 bb
(PID.TID 0000.0001)     58 cc
(PID.TID 0000.0001)     57 cc
(PID.TID 0000.0001)     56 dd
(PID.TID 0000.0001)     55 ee
(PID.TID 0000.0001)     54 gg
(PID.TID 0000.0001)     53 hh
(PID.TID 0000.0001)     52 ii
(PID.TID 0000.0001)     51 jj
(PID.TID 0000.0001)     50 ll
(PID.TID 0000.0001)     49 mm
(PID.TID 0000.0001)     48 nn
(PID.TID 0000.0001)     47 oo
(PID.TID 0000.0001)     46 qq
(PID.TID 0000.0001)     45 rr
(PID.TID 0000.0001)     44 ss
(PID.TID 0000.0001)     43 tt
(PID.TID 0000.0001)     42 vv
(PID.TID 0000.0001)     41 ww
(PID.TID 0000.0001)     40 xx
(PID.TID 0000.0001)     39 xx
(PID.TID 0000.0001)     38 yy
(PID.TID 0000.0001)     37 zz
(PID.TID 0000.0001)     36 zz
(PID.TID 0000.0001)     35 ++
(PID.TID 0000.0001)     34 ++
(PID.TID 0000.0001)     33 ++
(PID.TID 0000.0001)     32 ++
(PID.TID 0000.0001)     31 ++
(PID.TID 0000.0001)     30 ++
(PID.TID 0000.0001)     29 zz
(PID.TID 0000.0001)     28 zz
(PID.TID 0000.0001)     27 yy
(PID.TID 0000.0001)     26 xx
(PID.TID 0000.0001)     25 xx
(PID.TID 0000.0001)     24 ww
(PID.TID 0000.0001)     23 vv
(PID.TID 0000.0001)     22 tt
(PID.TID 0000.0001)     21 ss
(PID.TID 0000.0001)     20 rr
(PID.TID 0000.0001)     19 qq
(PID.TID 0000.0001)     18 oo
(PID.TID 0000.0001)     17 nn
(PID.TID 0000.0001)     16 mm
(PID.TID 0000.0001)     15 ll
(PID.TID 0000.0001)     14 jj
(PID.TID 0000.0001)     13 ii
(PID.TID 0000.0001)     12 hh
(PID.TID 0000.0001)     11 gg
(PID.TID 0000.0001)     10 ee
(PID.TID 0000.0001)      9 dd
(PID.TID 0000.0001)      8 cc
(PID.TID 0000.0001)      7 cc
(PID.TID 0000.0001)      6 bb
(PID.TID 0000.0001)      5 aa
(PID.TID 0000.0001)      4 aa
(PID.TID 0000.0001)      3 --
(PID.TID 0000.0001)      2 --
(PID.TID 0000.0001)      1 --
(PID.TID 0000.0001) // =======================================================
(PID.TID 0000.0001) // END OF FIELD                                          =
(PID.TID 0000.0001) // =======================================================
(PID.TID 0000.0001) 
(PID.TID 0000.0001) // =======================================================
(PID.TID 0000.0001) // Field Initial Salinity at iteration          1
(PID.TID 0000.0001) // CMIN =          1.000000000000000E+32
(PID.TID 0000.0001) // CMAX =         -1.000000000000000E+32
(PID.TID 0000.0001) // CINT =          0.000000000000000E+00
(PID.TID 0000.0001) // SYMBOLS (CMIN->CMAX): -abcdefghijklmnopqrstuvwxyz+
(PID.TID 0000.0001) //                  0.0: .
(PID.TID 0000.0001) // RANGE I (Lo:Hi:Step):(   1:   2:   1)
(PID.TID 0000.0001) // RANGE J (Lo:Hi:Step):(  64:   1:  -1)
(PID.TID 0000.0001) // RANGE K (Lo:Hi:Step):(   1:   1:   1)
(PID.TID 0000.0001) // =======================================================
(PID.TID 0000.0001) // =======================================================
(PID.TID 0000.0001) // END OF FIELD                                          =
(PID.TID 0000.0001) // =======================================================
(PID.TID 0000.0001) 
(PID.TID 0000.0001) Start initial hydrostatic pressure computation
(PID.TID 0000.0001) Pressure is predetermined for buoyancyRelation ATMOSPHERIC
(PID.TID 0000.0001) 
(PID.TID 0000.0001)  MDSREADFIELD: opening file: xx_theta.0000000000.001.001.data
(PID.TID 0000.0001)  MDSREADFIELD: opening file: xx_salt.0000000000.001.001.data
(PID.TID 0000.0001)  MDSREADFIELD: opening file: xx_diffkr.0000000000.001.001.data
(PID.TID 0000.0001) // =======================================================
(PID.TID 0000.0001) // Model current state
(PID.TID 0000.0001) // =======================================================
(PID.TID 0000.0001) 
(PID.TID 0000.0001) // =======================================================
(PID.TID 0000.0001) // Begin MONITOR dynamic field statistics
(PID.TID 0000.0001) // =======================================================
(PID.TID 0000.0001) %MON time_tsnumber                =                     0
(PID.TID 0000.0001) %MON time_secondsf                =   0.0000000000000E+00
(PID.TID 0000.0001) %MON dynstat_eta_max              =   0.0000000000000E+00
(PID.TID 0000.0001) %MON dynstat_eta_min              =   0.0000000000000E+00
(PID.TID 0000.0001) %MON dynstat_eta_mean             =   0.0000000000000E+00
(PID.TID 0000.0001) %MON dynstat_eta_sd               =   0.0000000000000E+00
(PID.TID 0000.0001) %MON dynstat_eta_del2             =   0.0000000000000E+00
(PID.TID 0000.0001) %MON dynstat_uvel_max             =   0.0000000000000E+00
(PID.TID 0000.0001) %MON dynstat_uvel_min             =   0.0000000000000E+00
(PID.TID 0000.0001) %MON dynstat_uvel_mean            =   0.0000000000000E+00
(PID.TID 0000.0001) %MON dynstat_uvel_sd              =   0.0000000000000E+00
(PID.TID 0000.0001) %MON dynstat_uvel_del2            =   0.0000000000000E+00
(PID.TID 0000.0001) %MON dynstat_vvel_max             =   0.0000000000000E+00
(PID.TID 0000.0001) %MON dynstat_vvel_min             =   0.0000000000000E+00
(PID.TID 0000.0001) %MON dynstat_vvel_mean            =   0.0000000000000E+00
(PID.TID 0000.0001) %MON dynstat_vvel_sd              =   0.0000000000000E+00
(PID.TID 0000.0001) %MON dynstat_vvel_del2            =   0.0000000000000E+00
(PID.TID 0000.0001) %MON dynstat_wvel_max             =   0.0000000000000E+00
(PID.TID 0000.0001) %MON dynstat_wvel_min             =   0.0000000000000E+00
(PID.TID 0000.0001) %MON dynstat_wvel_mean            =   0.0000000000000E+00
(PID.TID 0000.0001) %MON dynstat_wvel_sd              =   0.0000000000000E+00
(PID.TID 0000.0001) %MON dynstat_wvel_del2            =   0.0000000000000E+00
(PID.TID 0000.0001) %MON dynstat_theta_max            =   4.1921910192279E+02
(PID.TID 0000.0001) %MON dynstat_theta_min            =   2.5503644523894E+02
(PID.TID 0000.0001) %MON dynstat_theta_mean           =   3.1867742639052E+02
(PID.TID 0000.0001) %MON dynstat_theta_sd             =   4.5642507144412E+01
(PID.TID 0000.0001) %MON dynstat_theta_del2           =   4.0241168714763E-02
(PID.TID 0000.0001) %MON dynstat_salt_max             =   0.0000000000000E+00
(PID.TID 0000.0001) %MON dynstat_salt_min             =   0.0000000000000E+00
(PID.TID 0000.0001) %MON dynstat_salt_mean            =   0.0000000000000E+00
(PID.TID 0000.0001) %MON dynstat_salt_sd              =   0.0000000000000E+00
(PID.TID 0000.0001) %MON dynstat_salt_del2            =   0.0000000000000E+00
(PID.TID 0000.0001) %MON advcfl_uvel_max              =   0.0000000000000E+00
(PID.TID 0000.0001) %MON advcfl_vvel_max              =   0.0000000000000E+00
(PID.TID 0000.0001) %MON advcfl_wvel_max              =   0.0000000000000E+00
(PID.TID 0000.0001) %MON advcfl_W_hf_max              =   0.0000000000000E+00
(PID.TID 0000.0001) %MON pe_b_mean                    =   0.0000000000000E+00
(PID.TID 0000.0001) %MON ke_max                       =   0.0000000000000E+00
(PID.TID 0000.0001) %MON ke_mean                      =   0.0000000000000E+00
(PID.TID 0000.0001) %MON ke_vol                       =   1.7486817826145E+22
(PID.TID 0000.0001) %MON vort_r_min                   =   0.0000000000000E+00
(PID.TID 0000.0001) %MON vort_r_max                   =   0.0000000000000E+00
(PID.TID 0000.0001) %MON vort_a_mean                  =  -2.9209451854128E-21
(PID.TID 0000.0001) %MON vort_a_sd                    =   8.3955319514376E-05
(PID.TID 0000.0001) %MON vort_p_mean                  =   4.8186785874352E-22
(PID.TID 0000.0001) %MON vort_p_sd                    =   8.3955319514376E-05
(PID.TID 0000.0001) %MON surfExpan_theta_mean         =   0.0000000000000E+00
(PID.TID 0000.0001) %MON surfExpan_salt_mean          =   0.0000000000000E+00
(PID.TID 0000.0001) %MON surfExpan_Heat_mean          =   0.0000000000000E+00
(PID.TID 0000.0001) %MON En_Budget_T2PE_mean          =   0.0000000000000E+00
(PID.TID 0000.0001) // =======================================================
(PID.TID 0000.0001) // End MONITOR dynamic field statistics
(PID.TID 0000.0001) // =======================================================
 cg2d: Sum(rhs),rhsMax =  -2.08166817117217E-15  8.97359314695382E+01
(PID.TID 0000.0001)                    cg2d_init_res =    3.34522067997115E+00
(PID.TID 0000.0001)                       cg2d_iters =    19
(PID.TID 0000.0001)                         cg2d_res =    4.03486753620105E-14
(PID.TID 0000.0001) // =======================================================
(PID.TID 0000.0001) // Begin MONITOR dynamic field statistics
(PID.TID 0000.0001) // =======================================================
(PID.TID 0000.0001) %MON time_tsnumber                =                     1
(PID.TID 0000.0001) %MON time_secondsf                =   1.2000000000000E+03
(PID.TID 0000.0001) %MON dynstat_eta_max              =   1.4339547752309E+02
(PID.TID 0000.0001) %MON dynstat_eta_min              =  -9.2440656691673E+01
(PID.TID 0000.0001) %MON dynstat_eta_mean             =  -3.5665448465273E-15
(PID.TID 0000.0001) %MON dynstat_eta_sd               =   7.6540712603196E+01
(PID.TID 0000.0001) %MON dynstat_eta_del2             =   1.0992342486484E+00
(PID.TID 0000.0001) %MON dynstat_uvel_max             =   5.8198332770380E-16
(PID.TID 0000.0001) %MON dynstat_uvel_min             =  -5.8198332770380E-16
(PID.TID 0000.0001) %MON dynstat_uvel_mean            =   0.0000000000000E+00
(PID.TID 0000.0001) %MON dynstat_uvel_sd              =   2.0512326908700E-17
(PID.TID 0000.0001) %MON dynstat_uvel_del2            =   3.1105636223731E-17
(PID.TID 0000.0001) %MON dynstat_vvel_max             =   5.2726881150810E+00
(PID.TID 0000.0001) %MON dynstat_vvel_min             =  -5.2726881150130E+00
(PID.TID 0000.0001) %MON dynstat_vvel_mean            =   8.2600361782275E-07
(PID.TID 0000.0001) %MON dynstat_vvel_sd              =   1.9374161736563E+00
(PID.TID 0000.0001) %MON dynstat_vvel_del2            =   1.5137167264172E-02
(PID.TID 0000.0001) %MON dynstat_wvel_max             =   1.1949623126917E-01
(PID.TID 0000.0001) %MON dynstat_wvel_min             =  -7.7033880576390E-02
(PID.TID 0000.0001) %MON dynstat_wvel_mean            =   2.7588131617375E-19
(PID.TID 0000.0001) %MON dynstat_wvel_sd              =   5.1844194932132E-02
(PID.TID 0000.0001) %MON dynstat_wvel_del2            =   1.6735908972752E-03
(PID.TID 0000.0001) %MON dynstat_theta_max            =   4.1955348096031E+02
(PID.TID 0000.0001) %MON dynstat_theta_min            =   2.5503646775353E+02
(PID.TID 0000.0001) %MON dynstat_theta_mean           =   3.1869076369214E+02
(PID.TID 0000.0001) %MON dynstat_theta_sd             =   4.5634437331031E+01
(PID.TID 0000.0001) %MON dynstat_theta_del2           =   4.2535901322775E-02
(PID.TID 0000.0001) %MON dynstat_salt_max             =   0.0000000000000E+00
(PID.TID 0000.0001) %MON dynstat_salt_min             =   0.0000000000000E+00
(PID.TID 0000.0001) %MON dynstat_salt_mean            =   0.0000000000000E+00
(PID.TID 0000.0001) %MON dynstat_salt_sd              =   0.0000000000000E+00
(PID.TID 0000.0001) %MON dynstat_salt_del2            =   0.0000000000000E+00
(PID.TID 0000.0001) %MON advcfl_uvel_max              =   4.1465234703631E-21
(PID.TID 0000.0001) %MON advcfl_vvel_max              =   2.0235036780437E-02
(PID.TID 0000.0001) %MON advcfl_wvel_max              =   2.8679095504602E-02
(PID.TID 0000.0001) %MON advcfl_W_hf_max              =   2.8493754531618E-02
(PID.TID 0000.0001) %MON pe_b_mean                    =   2.9292403429025E-02
(PID.TID 0000.0001) %MON ke_max                       =   1.3026550730237E+01
(PID.TID 0000.0001) %MON ke_mean                      =   1.8764138447372E+00
(PID.TID 0000.0001) %MON ke_vol                       =   1.7486817826145E+22
(PID.TID 0000.0001) %MON vort_r_min                   =  -1.5300123704503E-21
(PID.TID 0000.0001) %MON vort_r_max                   =   3.2394289134380E-21
(PID.TID 0000.0001) %MON vort_a_mean                  =  -2.9209451854128E-21
(PID.TID 0000.0001) %MON vort_a_sd                    =   8.3955319514376E-05
(PID.TID 0000.0001) %MON vort_p_mean                  =   4.8186785874352E-22
(PID.TID 0000.0001) %MON vort_p_sd                    =   8.3955319514376E-05
(PID.TID 0000.0001) %MON surfExpan_theta_mean         =  -1.1110624479989E+00
(PID.TID 0000.0001) %MON surfExpan_salt_mean          =   0.0000000000000E+00
(PID.TID 0000.0001) %MON surfExpan_Heat_mean          =  -1.1205687082053E+02
(PID.TID 0000.0001) %MON En_Budget_T2PE_mean          =   3.0624056272672E+01
(PID.TID 0000.0001) // =======================================================
(PID.TID 0000.0001) // End MONITOR dynamic field statistics
(PID.TID 0000.0001) // =======================================================
 cg2d: Sum(rhs),rhsMax =   3.92741394961149E-15  1.89073450912131E+02
(PID.TID 0000.0001)                    cg2d_init_res =    2.90223016360501E+00
(PID.TID 0000.0001)                       cg2d_iters =    18
(PID.TID 0000.0001)                         cg2d_res =    5.24044958442679E-14
(PID.TID 0000.0001) // =======================================================
(PID.TID 0000.0001) // Begin MONITOR dynamic field statistics
(PID.TID 0000.0001) // =======================================================
(PID.TID 0000.0001) %MON time_tsnumber                =                     2
(PID.TID 0000.0001) %MON time_secondsf                =   2.4000000000000E+03
(PID.TID 0000.0001) %MON dynstat_eta_max              =   4.2435855957019E+02
(PID.TID 0000.0001) %MON dynstat_eta_min              =  -2.7278743290317E+02
(PID.TID 0000.0001) %MON dynstat_eta_mean             =   1.0847942826761E-16
(PID.TID 0000.0001) %MON dynstat_eta_sd               =   2.2413787102490E+02
(PID.TID 0000.0001) %MON dynstat_eta_del2             =   2.1382740075729E+00
(PID.TID 0000.0001) %MON dynstat_uvel_max             =   8.7088558281342E-01
(PID.TID 0000.0001) %MON dynstat_uvel_min             =   3.8323449779838E-05
(PID.TID 0000.0001) %MON dynstat_uvel_mean            =   2.3378345034816E-01
(PID.TID 0000.0001) %MON dynstat_uvel_sd              =   2.2937819869576E-01
(PID.TID 0000.0001) %MON dynstat_uvel_del2            =   2.4521493842444E-03
(PID.TID 0000.0001) %MON dynstat_vvel_max             =   1.0228690360855E+01
(PID.TID 0000.0001) %MON dynstat_vvel_min             =  -1.0228690359919E+01
(PID.TID 0000.0001) %MON dynstat_vvel_mean            =   1.3284391516161E-06
(PID.TID 0000.0001) %MON dynstat_vvel_sd              =   3.8107077297817E+00
(PID.TID 0000.0001) %MON dynstat_vvel_del2            =   2.5137231955965E-02
(PID.TID 0000.0001) %MON dynstat_wvel_max             =   2.3416605566668E-01
(PID.TID 0000.0001) %MON dynstat_wvel_min             =  -1.5028898017623E-01
(PID.TID 0000.0001) %MON dynstat_wvel_mean            =   6.9551039156646E-19
(PID.TID 0000.0001) %MON dynstat_wvel_sd              =   9.9653297297017E-02
(PID.TID 0000.0001) %MON dynstat_wvel_del2            =   1.8870499092333E-03
(PID.TID 0000.0001) %MON dynstat_theta_max            =   4.2021985667378E+02
(PID.TID 0000.0001) %MON dynstat_theta_min            =   2.5503651425748E+02
(PID.TID 0000.0001) %MON dynstat_theta_mean           =   3.1872449397904E+02
(PID.TID 0000.0001) %MON dynstat_theta_sd             =   4.5614068547636E+01
(PID.TID 0000.0001) %MON dynstat_theta_del2           =   4.3855131917721E-02
(PID.TID 0000.0001) %MON dynstat_salt_max             =   0.0000000000000E+00
(PID.TID 0000.0001) %MON dynstat_salt_min             =   0.0000000000000E+00
(PID.TID 0000.0001) %MON dynstat_salt_mean            =   0.0000000000000E+00
(PID.TID 0000.0001) %MON dynstat_salt_sd              =   0.0000000000000E+00
(PID.TID 0000.0001) %MON dynstat_salt_del2            =   0.0000000000000E+00
(PID.TID 0000.0001) %MON advcfl_uvel_max              =   3.0864927200849E-07
(PID.TID 0000.0001) %MON advcfl_vvel_max              =   3.9254725701601E-02
(PID.TID 0000.0001) %MON advcfl_wvel_max              =   5.6199853360004E-02
(PID.TID 0000.0001) %MON advcfl_W_hf_max              =   5.5934455812898E-02
(PID.TID 0000.0001) %MON pe_b_mean                    =   2.5118892613788E-01
(PID.TID 0000.0001) %MON ke_max                       =   8.3726296507290E+03
(PID.TID 0000.0001) %MON ke_mean                      =   7.3129286167997E+00
(PID.TID 0000.0001) %MON ke_vol                       =   1.7486817826145E+22
(PID.TID 0000.0001) %MON vort_r_min                   =  -1.1706374957312E-02
(PID.TID 0000.0001) %MON vort_r_max                   =   1.1708767949918E-02
(PID.TID 0000.0001) %MON vort_a_mean                  =   1.3612641660145E-14
(PID.TID 0000.0001) %MON vort_a_sd                    =   8.5416157463586E-05
(PID.TID 0000.0001) %MON vort_p_mean                  =   1.3612641737080E-14
(PID.TID 0000.0001) %MON vort_p_sd                    =   8.5416157463586E-05
(PID.TID 0000.0001) %MON surfExpan_theta_mean         =  -2.1724070081418E+00
(PID.TID 0000.0001) %MON surfExpan_salt_mean          =   0.0000000000000E+00
(PID.TID 0000.0001) %MON surfExpan_Heat_mean          =  -2.1909941418632E+02
(PID.TID 0000.0001) %MON En_Budget_T2PE_mean          =   5.9772667741355E+01
(PID.TID 0000.0001) // =======================================================
(PID.TID 0000.0001) // End MONITOR dynamic field statistics
(PID.TID 0000.0001) // =======================================================
 cg2d: Sum(rhs),rhsMax =   1.84574577843932E-15  3.69983935898352E+02
(PID.TID 0000.0001)                    cg2d_init_res =    2.11083859102479E+00
(PID.TID 0000.0001)                       cg2d_iters =    18
(PID.TID 0000.0001)                         cg2d_res =    3.26562912142788E-14
(PID.TID 0000.0001) // =======================================================
(PID.TID 0000.0001) // Begin MONITOR dynamic field statistics
(PID.TID 0000.0001) // =======================================================
(PID.TID 0000.0001) %MON time_tsnumber                =                     3
(PID.TID 0000.0001) %MON time_secondsf                =   3.6000000000000E+03
(PID.TID 0000.0001) %MON dynstat_eta_max              =   8.2446269050927E+02
(PID.TID 0000.0001) %MON dynstat_eta_min              =  -5.3368676356680E+02
(PID.TID 0000.0001) %MON dynstat_eta_mean             =   1.9257916640299E-14
(PID.TID 0000.0001) %MON dynstat_eta_sd               =   4.3546350888192E+02
(PID.TID 0000.0001) %MON dynstat_eta_del2             =   2.5720315670240E+00
(PID.TID 0000.0001) %MON dynstat_uvel_max             =   2.2294211938484E+00
(PID.TID 0000.0001) %MON dynstat_uvel_min             =  -1.8620007502279E-02
(PID.TID 0000.0001) %MON dynstat_uvel_mean            =   6.0431444527942E-01
(PID.TID 0000.0001) %MON dynstat_uvel_sd              =   5.9909600775454E-01
(PID.TID 0000.0001) %MON dynstat_uvel_del2            =   6.1770810289646E-03
(PID.TID 0000.0001) %MON dynstat_vvel_max             =   1.4565248770865E+01
(PID.TID 0000.0001) %MON dynstat_vvel_min             =  -1.4565248764353E+01
(PID.TID 0000.0001) %MON dynstat_vvel_mean            =   1.4594595462867E-06
(PID.TID 0000.0001) %MON dynstat_vvel_sd              =   5.5335218866428E+00
(PID.TID 0000.0001) %MON dynstat_vvel_del2            =   3.0428754674397E-02
(PID.TID 0000.0001) %MON dynstat_wvel_max             =   3.3342010911599E-01
(PID.TID 0000.0001) %MON dynstat_wvel_min             =  -2.1753228033545E-01
(PID.TID 0000.0001) %MON dynstat_wvel_mean            =   2.7901200453405E-18
(PID.TID 0000.0001) %MON dynstat_wvel_sd              =   1.4266620315131E-01
(PID.TID 0000.0001) %MON dynstat_wvel_del2            =   1.9144070790616E-03
(PID.TID 0000.0001) %MON dynstat_theta_max            =   4.2091730515042E+02
(PID.TID 0000.0001) %MON dynstat_theta_min            =   2.5503657555975E+02
(PID.TID 0000.0001) %MON dynstat_theta_mean           =   3.1876890231278E+02
(PID.TID 0000.0001) %MON dynstat_theta_sd             =   4.5587070059478E+01
(PID.TID 0000.0001) %MON dynstat_theta_del2           =   4.5686615498426E-02
(PID.TID 0000.0001) %MON dynstat_salt_max             =   0.0000000000000E+00
(PID.TID 0000.0001) %MON dynstat_salt_min             =   0.0000000000000E+00
(PID.TID 0000.0001) %MON dynstat_salt_mean            =   0.0000000000000E+00
(PID.TID 0000.0001) %MON dynstat_salt_sd              =   0.0000000000000E+00
(PID.TID 0000.0001) %MON dynstat_salt_del2            =   0.0000000000000E+00
(PID.TID 0000.0001) %MON advcfl_uvel_max              =   8.1391198761525E-07
(PID.TID 0000.0001) %MON advcfl_vvel_max              =   5.5897170126882E-02
(PID.TID 0000.0001) %MON advcfl_wvel_max              =   8.0020826187838E-02
(PID.TID 0000.0001) %MON advcfl_W_hf_max              =   7.9836374051934E-02
(PID.TID 0000.0001) %MON pe_b_mean                    =   9.4814233783876E-01
(PID.TID 0000.0001) %MON ke_max                       =   5.4649248908455E+04
(PID.TID 0000.0001) %MON ke_mean                      =   1.5668950253810E+01
(PID.TID 0000.0001) %MON ke_vol                       =   1.7486817826145E+22
(PID.TID 0000.0001) %MON vort_r_min                   =  -3.0655587233748E-02
(PID.TID 0000.0001) %MON vort_r_max                   =   3.0658947536092E-02
(PID.TID 0000.0001) %MON vort_a_mean                  =  -4.7431322024073E-15
(PID.TID 0000.0001) %MON vort_a_sd                    =   9.3006676006429E-05
(PID.TID 0000.0001) %MON vort_p_mean                  =  -4.7431276209137E-15
(PID.TID 0000.0001) %MON vort_p_sd                    =   9.3006676006429E-05
(PID.TID 0000.0001) %MON surfExpan_theta_mean         =  -3.1263834074928E+00
(PID.TID 0000.0001) %MON surfExpan_salt_mean          =   0.0000000000000E+00
(PID.TID 0000.0001) %MON surfExpan_Heat_mean          =  -3.1531327717885E+02
(PID.TID 0000.0001) %MON En_Budget_T2PE_mean          =   8.5968257202647E+01
(PID.TID 0000.0001) // =======================================================
(PID.TID 0000.0001) // End MONITOR dynamic field statistics
(PID.TID 0000.0001) // =======================================================
 cg2d: Sum(rhs),rhsMax =  -5.89805981832114E-16  6.00188020663696E+02
(PID.TID 0000.0001)                    cg2d_init_res =    1.63582230049311E+00
(PID.TID 0000.0001)                       cg2d_iters =    18
(PID.TID 0000.0001)                         cg2d_res =    1.85372007409461E-14
(PID.TID 0000.0001) // =======================================================
(PID.TID 0000.0001) // Begin MONITOR dynamic field statistics
(PID.TID 0000.0001) // =======================================================
(PID.TID 0000.0001) %MON time_tsnumber                =                     4
(PID.TID 0000.0001) %MON time_secondsf                =   4.8000000000000E+03
(PID.TID 0000.0001) %MON dynstat_eta_max              =   1.3212958932277E+03
(PID.TID 0000.0001) %MON dynstat_eta_min              =  -8.6541627901175E+02
(PID.TID 0000.0001) %MON dynstat_eta_mean             =   2.3808379782943E-15
(PID.TID 0000.0001) %MON dynstat_eta_sd               =   7.0179716651210E+02
(PID.TID 0000.0001) %MON dynstat_eta_del2             =   3.1001844825504E+00
(PID.TID 0000.0001) %MON dynstat_uvel_max             =   4.0093965036708E+00
(PID.TID 0000.0001) %MON dynstat_uvel_min             =  -7.2580076244208E-02
(PID.TID 0000.0001) %MON dynstat_uvel_mean            =   1.0932703796885E+00
(PID.TID 0000.0001) %MON dynstat_uvel_sd              =   1.0964637026118E+00
(PID.TID 0000.0001) %MON dynstat_uvel_del2            =   1.0567471317615E-02
(PID.TID 0000.0001) %MON dynstat_vvel_max             =   1.8296281264820E+01
(PID.TID 0000.0001) %MON dynstat_vvel_min             =  -1.8296281235608E+01
(PID.TID 0000.0001) %MON dynstat_vvel_mean            =   1.3843837735910E-06
(PID.TID 0000.0001) %MON dynstat_vvel_sd              =   7.0706027335730E+00
(PID.TID 0000.0001) %MON dynstat_vvel_del2            =   3.3581084009782E-02
(PID.TID 0000.0001) %MON dynstat_wvel_max             =   4.1434037532448E-01
(PID.TID 0000.0001) %MON dynstat_wvel_min             =  -2.7771168429203E-01
(PID.TID 0000.0001) %MON dynstat_wvel_mean            =  -1.7726673382772E-19
(PID.TID 0000.0001) %MON dynstat_wvel_sd              =   1.8057777343293E-01
(PID.TID 0000.0001) %MON dynstat_wvel_del2            =   1.7880804342097E-03
(PID.TID 0000.0001) %MON dynstat_theta_max            =   4.2160298211646E+02
(PID.TID 0000.0001) %MON dynstat_theta_min            =   2.5503670912312E+02
(PID.TID 0000.0001) %MON dynstat_theta_mean           =   3.1882219334581E+02
(PID.TID 0000.0001) %MON dynstat_theta_sd             =   4.5554484177355E+01
(PID.TID 0000.0001) %MON dynstat_theta_del2           =   4.6837027014747E-02
(PID.TID 0000.0001) %MON dynstat_salt_max             =   0.0000000000000E+00
(PID.TID 0000.0001) %MON dynstat_salt_min             =   0.0000000000000E+00
(PID.TID 0000.0001) %MON dynstat_salt_mean            =   0.0000000000000E+00
(PID.TID 0000.0001) %MON dynstat_salt_sd              =   0.0000000000000E+00
(PID.TID 0000.0001) %MON dynstat_salt_del2            =   0.0000000000000E+00
(PID.TID 0000.0001) %MON advcfl_uvel_max              =   1.4928053805493E-06
(PID.TID 0000.0001) %MON advcfl_vvel_max              =   7.0215782966552E-02
(PID.TID 0000.0001) %MON advcfl_wvel_max              =   9.9366640543705E-02
(PID.TID 0000.0001) %MON advcfl_W_hf_max              =   9.9441690077876E-02
(PID.TID 0000.0001) %MON pe_b_mean                    =   2.4625963146221E+00
(PID.TID 0000.0001) %MON ke_max                       =   1.7658678130333E+05
(PID.TID 0000.0001) %MON ke_mean                      =   2.6190548773642E+01
(PID.TID 0000.0001) %MON ke_vol                       =   1.7486817826145E+22
(PID.TID 0000.0001) %MON vort_r_min                   =  -5.5813745297555E-02
(PID.TID 0000.0001) %MON vort_r_max                   =   5.5817620584823E-02
(PID.TID 0000.0001) %MON vort_a_mean                  =  -1.3285235884702E-14
(PID.TID 0000.0001) %MON vort_a_sd                    =   1.1052247646064E-04
(PID.TID 0000.0001) %MON vort_p_mean                  =  -1.3285240690236E-14
(PID.TID 0000.0001) %MON vort_p_sd                    =   1.1052247646064E-04
(PID.TID 0000.0001) %MON surfExpan_theta_mean         =  -3.9465762269439E+00
(PID.TID 0000.0001) %MON surfExpan_salt_mean          =   0.0000000000000E+00
(PID.TID 0000.0001) %MON surfExpan_Heat_mean          =  -3.9803431683121E+02
(PID.TID 0000.0001) %MON En_Budget_T2PE_mean          =   1.0858601663613E+02
(PID.TID 0000.0001) // =======================================================
(PID.TID 0000.0001) // End MONITOR dynamic field statistics
(PID.TID 0000.0001) // =======================================================
 cg2d: Sum(rhs),rhsMax =  -1.13103970633688E-15  8.71578060597489E+02
(PID.TID 0000.0001)                    cg2d_init_res =    1.31214051656167E+00
(PID.TID 0000.0001)                       cg2d_iters =    17
(PID.TID 0000.0001)                         cg2d_res =    6.51647989300699E-14
(PID.TID 0000.0001) // =======================================================
(PID.TID 0000.0001) // Begin MONITOR dynamic field statistics
(PID.TID 0000.0001) // =======================================================
(PID.TID 0000.0001) %MON time_tsnumber                =                     5
(PID.TID 0000.0001) %MON time_secondsf                =   6.0000000000000E+03
(PID.TID 0000.0001) %MON dynstat_eta_max              =   1.8889461099978E+03
(PID.TID 0000.0001) %MON dynstat_eta_min              =  -1.2560243582753E+03
(PID.TID 0000.0001) %MON dynstat_eta_mean             =   1.4724069442471E-14
(PID.TID 0000.0001) %MON dynstat_eta_sd               =   1.0127023340078E+03
(PID.TID 0000.0001) %MON dynstat_eta_del2             =   3.6963020494870E+00
(PID.TID 0000.0001) %MON dynstat_uvel_max             =   6.1544675364993E+00
(PID.TID 0000.0001) %MON dynstat_uvel_min             =  -1.8651686328649E-01
(PID.TID 0000.0001) %MON dynstat_uvel_mean            =   1.6817315675115E+00
(PID.TID 0000.0001) %MON dynstat_uvel_sd              =   1.7094970018551E+00
(PID.TID 0000.0001) %MON dynstat_uvel_del2            =   1.5548591600999E-02
(PID.TID 0000.0001) %MON dynstat_vvel_max             =   2.1567476136927E+01
(PID.TID 0000.0001) %MON dynstat_vvel_min             =  -2.1567476082076E+01
(PID.TID 0000.0001) %MON dynstat_vvel_mean            =   1.2246680441818E-06
(PID.TID 0000.0001) %MON dynstat_vvel_sd              =   8.3873304597392E+00
(PID.TID 0000.0001) %MON dynstat_vvel_del2            =   3.5366608603297E-02
(PID.TID 0000.0001) %MON dynstat_wvel_max             =   4.7513783105189E-01
(PID.TID 0000.0001) %MON dynstat_wvel_min             =  -3.2874760551285E-01
(PID.TID 0000.0001) %MON dynstat_wvel_mean            =   3.2924124983727E-19
(PID.TID 0000.0001) %MON dynstat_wvel_sd              =   2.1261939776438E-01
(PID.TID 0000.0001) %MON dynstat_wvel_del2            =   1.6156822099175E-03
(PID.TID 0000.0001) %MON dynstat_theta_max            =   4.2224749975955E+02
(PID.TID 0000.0001) %MON dynstat_theta_min            =   2.5503701842097E+02
(PID.TID 0000.0001) %MON dynstat_theta_mean           =   3.1888226791898E+02
(PID.TID 0000.0001) %MON dynstat_theta_sd             =   4.5517528431781E+01
(PID.TID 0000.0001) %MON dynstat_theta_del2           =   4.7263988735697E-02
(PID.TID 0000.0001) %MON dynstat_salt_max             =   0.0000000000000E+00
(PID.TID 0000.0001) %MON dynstat_salt_min             =   0.0000000000000E+00
(PID.TID 0000.0001) %MON dynstat_salt_mean            =   0.0000000000000E+00
(PID.TID 0000.0001) %MON dynstat_salt_sd              =   0.0000000000000E+00
(PID.TID 0000.0001) %MON dynstat_salt_del2            =   0.0000000000000E+00
(PID.TID 0000.0001) %MON advcfl_uvel_max              =   2.3233080052739E-06
(PID.TID 0000.0001) %MON advcfl_vvel_max              =   8.2769673336769E-02
(PID.TID 0000.0001) %MON advcfl_wvel_max              =   1.1353029154657E-01
(PID.TID 0000.0001) %MON advcfl_W_hf_max              =   1.1403307945245E-01
(PID.TID 0000.0001) %MON pe_b_mean                    =   5.1278300865246E+00
(PID.TID 0000.0001) %MON ke_max                       =   4.1593071786180E+05
(PID.TID 0000.0001) %MON ke_mean                      =   3.8042182279793E+01
(PID.TID 0000.0001) %MON ke_vol                       =   1.7486817826145E+22
(PID.TID 0000.0001) %MON vort_r_min                   =  -8.6223541461545E-02
(PID.TID 0000.0001) %MON vort_r_max                   =   8.6227715472923E-02
(PID.TID 0000.0001) %MON vort_a_mean                  =  -1.1467011496887E-14
(PID.TID 0000.0001) %MON vort_a_sd                    =   1.3862103565521E-04
(PID.TID 0000.0001) %MON vort_p_mean                  =  -1.1467014338088E-14
(PID.TID 0000.0001) %MON vort_p_sd                    =   1.3862103565521E-04
(PID.TID 0000.0001) %MON surfExpan_theta_mean         =  -4.6074863017872E+00
(PID.TID 0000.0001) %MON surfExpan_salt_mean          =   0.0000000000000E+00
(PID.TID 0000.0001) %MON surfExpan_Heat_mean          =  -4.6469079956455E+02
(PID.TID 0000.0001) %MON En_Budget_T2PE_mean          =   1.2705881689406E+02
(PID.TID 0000.0001) // =======================================================
(PID.TID 0000.0001) // End MONITOR dynamic field statistics
(PID.TID 0000.0001) // =======================================================
 cg2d: Sum(rhs),rhsMax =  -3.40005801291454E-15  1.17463757355382E+03
(PID.TID 0000.0001)                    cg2d_init_res =    1.07483849718930E+00
(PID.TID 0000.0001)                       cg2d_iters =    17
(PID.TID 0000.0001)                         cg2d_res =    4.83649816418949E-14
(PID.TID 0000.0001) // =======================================================
(PID.TID 0000.0001) // Begin MONITOR dynamic field statistics
(PID.TID 0000.0001) // =======================================================
(PID.TID 0000.0001) %MON time_tsnumber                =                     6
(PID.TID 0000.0001) %MON time_secondsf                =   7.2000000000000E+03
(PID.TID 0000.0001) %MON dynstat_eta_max              =   2.4997129949852E+03
(PID.TID 0000.0001) %MON dynstat_eta_min              =  -1.6915056490296E+03
(PID.TID 0000.0001) %MON dynstat_eta_mean             =  -2.8021656362621E-15
(PID.TID 0000.0001) %MON dynstat_eta_sd               =   1.3563936677447E+03
(PID.TID 0000.0001) %MON dynstat_eta_del2             =   4.2695724486673E+00
(PID.TID 0000.0001) %MON dynstat_uvel_max             =   8.6004656508273E+00
(PID.TID 0000.0001) %MON dynstat_uvel_min             =  -3.6890563224277E-01
(PID.TID 0000.0001) %MON dynstat_uvel_mean            =   2.3473604556684E+00
(PID.TID 0000.0001) %MON dynstat_uvel_sd              =   2.4231949419125E+00
(PID.TID 0000.0001) %MON dynstat_uvel_del2            =   2.0771654340633E-02
(PID.TID 0000.0001) %MON dynstat_vvel_max             =   2.4351166815467E+01
(PID.TID 0000.0001) %MON dynstat_vvel_min             =  -2.4351166655904E+01
(PID.TID 0000.0001) %MON dynstat_vvel_mean            =   1.0351052773737E-06
(PID.TID 0000.0001) %MON dynstat_vvel_sd              =   9.4576600072533E+00
(PID.TID 0000.0001) %MON dynstat_vvel_del2            =   3.6061050202031E-02
(PID.TID 0000.0001) %MON dynstat_wvel_max             =   5.1342596616543E-01
(PID.TID 0000.0001) %MON dynstat_wvel_min             =  -3.6907331891718E-01
(PID.TID 0000.0001) %MON dynstat_wvel_mean            =   6.2714228980966E-20
(PID.TID 0000.0001) %MON dynstat_wvel_sd              =   2.3810215998439E-01
(PID.TID 0000.0001) %MON dynstat_wvel_del2            =   1.4839446149578E-03
(PID.TID 0000.0001) %MON dynstat_theta_max            =   4.2283844424325E+02
(PID.TID 0000.0001) %MON dynstat_theta_min            =   2.5503763345904E+02
(PID.TID 0000.0001) %MON dynstat_theta_mean           =   3.1894683054759E+02
(PID.TID 0000.0001) %MON dynstat_theta_sd             =   4.5477570854356E+01
(PID.TID 0000.0001) %MON dynstat_theta_del2           =   4.7260284119578E-02
(PID.TID 0000.0001) %MON dynstat_salt_max             =   0.0000000000000E+00
(PID.TID 0000.0001) %MON dynstat_salt_min             =   0.0000000000000E+00
(PID.TID 0000.0001) %MON dynstat_salt_mean            =   0.0000000000000E+00
(PID.TID 0000.0001) %MON dynstat_salt_sd              =   0.0000000000000E+00
(PID.TID 0000.0001) %MON dynstat_salt_del2            =   0.0000000000000E+00
(PID.TID 0000.0001) %MON advcfl_uvel_max              =   3.2764449912765E-06
(PID.TID 0000.0001) %MON advcfl_vvel_max              =   9.3452665016952E-02
(PID.TID 0000.0001) %MON advcfl_wvel_max              =   1.2215439535748E-01
(PID.TID 0000.0001) %MON advcfl_W_hf_max              =   1.2322223187970E-01
(PID.TID 0000.0001) %MON pe_b_mean                    =   9.1990189094898E+00
(PID.TID 0000.0001) %MON ke_max                       =   8.1208791301612E+05
(PID.TID 0000.0001) %MON ke_mean                      =   5.0406244466339E+01
(PID.TID 0000.0001) %MON ke_vol                       =   1.7486817826145E+22
(PID.TID 0000.0001) %MON vort_r_min                   =  -1.2070743522628E-01
(PID.TID 0000.0001) %MON vort_r_max                   =   1.2071168223456E-01
(PID.TID 0000.0001) %MON vort_a_mean                  =  -6.2039457008714E-15
(PID.TID 0000.0001) %MON vort_a_sd                    =   1.7554363004449E-04
(PID.TID 0000.0001) %MON vort_p_mean                  =  -6.2039455621894E-15
(PID.TID 0000.0001) %MON vort_p_sd                    =   1.7554363004449E-04
(PID.TID 0000.0001) %MON surfExpan_theta_mean         =  -5.0893841607334E+00
(PID.TID 0000.0001) %MON surfExpan_salt_mean          =   0.0000000000000E+00
(PID.TID 0000.0001) %MON surfExpan_Heat_mean          =  -5.1329289769674E+02
(PID.TID 0000.0001) %MON En_Budget_T2PE_mean          =   1.4099760246214E+02
(PID.TID 0000.0001) // =======================================================
(PID.TID 0000.0001) // End MONITOR dynamic field statistics
(PID.TID 0000.0001) // =======================================================
 cg2d: Sum(rhs),rhsMax =  -2.62984078958084E-15  1.49858166118168E+03
(PID.TID 0000.0001)                    cg2d_init_res =    8.91221112196275E-01
(PID.TID 0000.0001)                       cg2d_iters =    17
(PID.TID 0000.0001)                         cg2d_res =    3.35332230889564E-14
(PID.TID 0000.0001) // =======================================================
(PID.TID 0000.0001) // Begin MONITOR dynamic field statistics
(PID.TID 0000.0001) // =======================================================
(PID.TID 0000.0001) %MON time_tsnumber                =                     7
(PID.TID 0000.0001) %MON time_secondsf                =   8.4000000000000E+03
(PID.TID 0000.0001) %MON dynstat_eta_max              =   3.1262331261825E+03
(PID.TID 0000.0001) %MON dynstat_eta_min              =  -2.1561100328880E+03
(PID.TID 0000.0001) %MON dynstat_eta_mean             =   3.9919844018521E-14
(PID.TID 0000.0001) %MON dynstat_eta_sd               =   1.7201578108010E+03
(PID.TID 0000.0001) %MON dynstat_eta_del2             =   5.1193901812444E+00
(PID.TID 0000.0001) %MON dynstat_uvel_max             =   1.1278497127401E+01
(PID.TID 0000.0001) %MON dynstat_uvel_min             =  -6.3493940734267E-01
(PID.TID 0000.0001) %MON dynstat_uvel_mean            =   3.0654497124001E+00
(PID.TID 0000.0001) %MON dynstat_uvel_sd              =   3.2201765640941E+00
(PID.TID 0000.0001) %MON dynstat_uvel_del2            =   2.6015650025143E-02
(PID.TID 0000.0001) %MON dynstat_vvel_max             =   2.6475554239387E+01
(PID.TID 0000.0001) %MON dynstat_vvel_min             =  -2.6475553854434E+01
(PID.TID 0000.0001) %MON dynstat_vvel_mean            =   8.3583726694123E-07
(PID.TID 0000.0001) %MON dynstat_vvel_sd              =   1.0265790253858E+01
(PID.TID 0000.0001) %MON dynstat_vvel_del2            =   3.6541011896099E-02
(PID.TID 0000.0001) %MON dynstat_wvel_max             =   5.2924942510741E-01
(PID.TID 0000.0001) %MON dynstat_wvel_min             =  -3.9736250584127E-01
(PID.TID 0000.0001) %MON dynstat_wvel_mean            =   1.0861376498026E-18
(PID.TID 0000.0001) %MON dynstat_wvel_sd              =   2.5652800458606E-01
(PID.TID 0000.0001) %MON dynstat_wvel_del2            =   1.4149622948746E-03
(PID.TID 0000.0001) %MON dynstat_theta_max            =   4.2350902341389E+02
(PID.TID 0000.0001) %MON dynstat_theta_min            =   2.5503866893321E+02
(PID.TID 0000.0001) %MON dynstat_theta_mean           =   3.1901347496647E+02
(PID.TID 0000.0001) %MON dynstat_theta_sd             =   4.5436084578554E+01
(PID.TID 0000.0001) %MON dynstat_theta_del2           =   4.7000359309930E-02
(PID.TID 0000.0001) %MON dynstat_salt_max             =   0.0000000000000E+00
(PID.TID 0000.0001) %MON dynstat_salt_min             =   0.0000000000000E+00
(PID.TID 0000.0001) %MON dynstat_salt_mean            =   0.0000000000000E+00
(PID.TID 0000.0001) %MON dynstat_salt_sd              =   0.0000000000000E+00
(PID.TID 0000.0001) %MON dynstat_salt_del2            =   0.0000000000000E+00
(PID.TID 0000.0001) %MON advcfl_uvel_max              =   4.3180202426669E-06
(PID.TID 0000.0001) %MON advcfl_vvel_max              =   1.0160544339502E-01
(PID.TID 0000.0001) %MON advcfl_wvel_max              =   1.2530492436801E-01
(PID.TID 0000.0001) %MON advcfl_W_hf_max              =   1.2701986202578E-01
(PID.TID 0000.0001) %MON pe_b_mean                    =   1.4794714470298E+01
(PID.TID 0000.0001) %MON ke_max                       =   1.3964166245194E+06
(PID.TID 0000.0001) %MON ke_mean                      =   6.2566895528087E+01
(PID.TID 0000.0001) %MON ke_vol                       =   1.7486817826145E+22
(PID.TID 0000.0001) %MON vort_r_min                   =  -1.5794453380168E-01
(PID.TID 0000.0001) %MON vort_r_max                   =   1.5794869072677E-01
(PID.TID 0000.0001) %MON vort_a_mean                  =  -6.4800244197633E-16
(PID.TID 0000.0001) %MON vort_a_sd                    =   2.1895744687829E-04
(PID.TID 0000.0001) %MON vort_p_mean                  =  -6.4799013351534E-16
(PID.TID 0000.0001) %MON vort_p_sd                    =   2.1895744687829E-04
(PID.TID 0000.0001) %MON surfExpan_theta_mean         =  -5.3791239938708E+00
(PID.TID 0000.0001) %MON surfExpan_salt_mean          =   0.0000000000000E+00
(PID.TID 0000.0001) %MON surfExpan_Heat_mean          =  -5.4251478266992E+02
(PID.TID 0000.0001) %MON En_Budget_T2PE_mean          =   1.5020524563957E+02
(PID.TID 0000.0001) // =======================================================
(PID.TID 0000.0001) // End MONITOR dynamic field statistics
(PID.TID 0000.0001) // =======================================================
 cg2d: Sum(rhs),rhsMax =  -2.92127433354494E-15  1.83164888954286E+03
(PID.TID 0000.0001)                    cg2d_init_res =    7.43136255376180E-01
(PID.TID 0000.0001)                       cg2d_iters =    17
(PID.TID 0000.0001)                         cg2d_res =    1.98957356958595E-14
(PID.TID 0000.0001) // =======================================================
(PID.TID 0000.0001) // Begin MONITOR dynamic field statistics
(PID.TID 0000.0001) // =======================================================
(PID.TID 0000.0001) %MON time_tsnumber                =                     8
(PID.TID 0000.0001) %MON time_secondsf                =   9.6000000000000E+03
(PID.TID 0000.0001) %MON dynstat_eta_max              =   3.7434381972056E+03
(PID.TID 0000.0001) %MON dynstat_eta_min              =  -2.6328837627075E+03
(PID.TID 0000.0001) %MON dynstat_eta_mean             =  -3.1060837105989E-15
(PID.TID 0000.0001) %MON dynstat_eta_sd               =   2.0907965873848E+03
(PID.TID 0000.0001) %MON dynstat_eta_del2             =   5.9697937316513E+00
(PID.TID 0000.0001) %MON dynstat_uvel_max             =   1.4117347579118E+01
(PID.TID 0000.0001) %MON dynstat_uvel_min             =  -1.0001354672885E+00
(PID.TID 0000.0001) %MON dynstat_uvel_mean            =   3.8097532121432E+00
(PID.TID 0000.0001) %MON dynstat_uvel_sd              =   4.0811544588686E+00
(PID.TID 0000.0001) %MON dynstat_uvel_del2            =   3.1303522082794E-02
(PID.TID 0000.0001) %MON dynstat_vvel_max             =   2.7915329833998E+01
(PID.TID 0000.0001) %MON dynstat_vvel_min             =  -2.7915329041458E+01
(PID.TID 0000.0001) %MON dynstat_vvel_mean            =   6.3632573727963E-07
(PID.TID 0000.0001) %MON dynstat_vvel_sd              =   1.0807279520375E+01
(PID.TID 0000.0001) %MON dynstat_vvel_del2            =   3.6943368963174E-02
(PID.TID 0000.0001) %MON dynstat_wvel_max             =   5.2419746616338E-01
(PID.TID 0000.0001) %MON dynstat_wvel_min             =  -4.1270451727937E-01
(PID.TID 0000.0001) %MON dynstat_wvel_mean            =  -2.1299963480159E-18
(PID.TID 0000.0001) %MON dynstat_wvel_sd              =   2.6764377157851E-01
(PID.TID 0000.0001) %MON dynstat_wvel_del2            =   1.3819967664821E-03
(PID.TID 0000.0001) %MON dynstat_theta_max            =   4.2420420479992E+02
(PID.TID 0000.0001) %MON dynstat_theta_min            =   2.5504018235290E+02
(PID.TID 0000.0001) %MON dynstat_theta_mean           =   3.1907977034277E+02
(PID.TID 0000.0001) %MON dynstat_theta_sd             =   4.5394599203923E+01
(PID.TID 0000.0001) %MON dynstat_theta_del2           =   4.7163747895001E-02
(PID.TID 0000.0001) %MON dynstat_salt_max             =   0.0000000000000E+00
(PID.TID 0000.0001) %MON dynstat_salt_min             =   0.0000000000000E+00
(PID.TID 0000.0001) %MON dynstat_salt_mean            =   0.0000000000000E+00
(PID.TID 0000.0001) %MON dynstat_salt_sd              =   0.0000000000000E+00
(PID.TID 0000.0001) %MON dynstat_salt_del2            =   0.0000000000000E+00
(PID.TID 0000.0001) %MON advcfl_uvel_max              =   5.4105124429350E-06
(PID.TID 0000.0001) %MON advcfl_vvel_max              =   1.0713088155420E-01
(PID.TID 0000.0001) %MON advcfl_wvel_max              =   1.2344171032826E-01
(PID.TID 0000.0001) %MON advcfl_W_hf_max              =   1.2580739187921E-01
(PID.TID 0000.0001) %MON pe_b_mean                    =   2.1857151849099E+01
(PID.TID 0000.0001) %MON ke_max                       =   2.1877091618484E+06
(PID.TID 0000.0001) %MON ke_mean                      =   7.3973503990827E+01
(PID.TID 0000.0001) %MON ke_vol                       =   1.7486817826145E+22
(PID.TID 0000.0001) %MON vort_r_min                   =  -1.9654387069695E-01
(PID.TID 0000.0001) %MON vort_r_max                   =   1.9654784698572E-01
(PID.TID 0000.0001) %MON vort_a_mean                  =   4.7282685467587E-15
(PID.TID 0000.0001) %MON vort_a_sd                    =   2.6670424601074E-04
(PID.TID 0000.0001) %MON vort_p_mean                  =   4.7282640921445E-15
(PID.TID 0000.0001) %MON vort_p_sd                    =   2.6670424601074E-04
(PID.TID 0000.0001) %MON surfExpan_theta_mean         =  -5.4704773743239E+00
(PID.TID 0000.0001) %MON surfExpan_salt_mean          =   0.0000000000000E+00
(PID.TID 0000.0001) %MON surfExpan_Heat_mean          =  -5.5172828274895E+02
(PID.TID 0000.0001) %MON En_Budget_T2PE_mean          =   1.5467267693819E+02
(PID.TID 0000.0001) // =======================================================
(PID.TID 0000.0001) // End MONITOR dynamic field statistics
(PID.TID 0000.0001) // =======================================================
 cg2d: Sum(rhs),rhsMax =   1.59594559789866E-15  2.16161545349292E+03
(PID.TID 0000.0001)                    cg2d_init_res =    6.19717264654275E-01
(PID.TID 0000.0001)                       cg2d_iters =    17
(PID.TID 0000.0001)                         cg2d_res =    1.77769046602246E-14
(PID.TID 0000.0001) // =======================================================
(PID.TID 0000.0001) // Begin MONITOR dynamic field statistics
(PID.TID 0000.0001) // =======================================================
(PID.TID 0000.0001) %MON time_tsnumber                =                     9
(PID.TID 0000.0001) %MON time_secondsf                =   1.0800000000000E+04
(PID.TID 0000.0001) %MON dynstat_eta_max              =   4.3297961162489E+03
(PID.TID 0000.0001) %MON dynstat_eta_min              =  -3.1044711478148E+03
(PID.TID 0000.0001) %MON dynstat_eta_mean             =   3.6308694143923E-14
(PID.TID 0000.0001) %MON dynstat_eta_sd               =   2.4550947831452E+03
(PID.TID 0000.0001) %MON dynstat_eta_del2             =   6.8144299802190E+00
(PID.TID 0000.0001) %MON dynstat_uvel_max             =   1.7045336931582E+01
(PID.TID 0000.0001) %MON dynstat_uvel_min             =  -1.4793092117196E+00
(PID.TID 0000.0001) %MON dynstat_uvel_mean            =   4.5533538918143E+00
(PID.TID 0000.0001) %MON dynstat_uvel_sd              =   4.9855333854050E+00
(PID.TID 0000.0001) %MON dynstat_uvel_del2            =   3.6654981642981E-02
(PID.TID 0000.0001) %MON dynstat_vvel_max             =   2.8780894232198E+01
(PID.TID 0000.0001) %MON dynstat_vvel_min             =  -2.8780893294798E+01
(PID.TID 0000.0001) %MON dynstat_vvel_mean            =   4.4412816415454E-07
(PID.TID 0000.0001) %MON dynstat_vvel_sd              =   1.1089990704650E+01
(PID.TID 0000.0001) %MON dynstat_vvel_del2            =   3.7450320729086E-02
(PID.TID 0000.0001) %MON dynstat_wvel_max             =   5.0137231602787E-01
(PID.TID 0000.0001) %MON dynstat_wvel_min             =  -4.2656620848665E-01
(PID.TID 0000.0001) %MON dynstat_wvel_mean            =   1.4379731392139E-18
(PID.TID 0000.0001) %MON dynstat_wvel_sd              =   2.7148170166409E-01
(PID.TID 0000.0001) %MON dynstat_wvel_del2            =   1.3679804649141E-03
(PID.TID 0000.0001) %MON dynstat_theta_max            =   4.2484926168522E+02
(PID.TID 0000.0001) %MON dynstat_theta_min            =   2.5504214739767E+02
(PID.TID 0000.0001) %MON dynstat_theta_mean           =   3.1914334740189E+02
(PID.TID 0000.0001) %MON dynstat_theta_sd             =   4.5354646510997E+01
(PID.TID 0000.0001) %MON dynstat_theta_del2           =   4.7210104895237E-02
(PID.TID 0000.0001) %MON dynstat_salt_max             =   0.0000000000000E+00
(PID.TID 0000.0001) %MON dynstat_salt_min             =   0.0000000000000E+00
(PID.TID 0000.0001) %MON dynstat_salt_mean            =   0.0000000000000E+00
(PID.TID 0000.0001) %MON dynstat_salt_sd              =   0.0000000000000E+00
(PID.TID 0000.0001) %MON dynstat_salt_del2            =   0.0000000000000E+00
(PID.TID 0000.0001) %MON advcfl_uvel_max              =   6.5151827664749E-06
(PID.TID 0000.0001) %MON advcfl_vvel_max              =   1.1045266487442E-01
(PID.TID 0000.0001) %MON advcfl_wvel_max              =   1.1781834188822E-01
(PID.TID 0000.0001) %MON advcfl_W_hf_max              =   1.2032935584669E-01
(PID.TID 0000.0001) %MON pe_b_mean                    =   3.0137451971133E+01
(PID.TID 0000.0001) %MON ke_max                       =   3.1891515209614E+06
(PID.TID 0000.0001) %MON ke_mean                      =   8.4278174661457E+01
(PID.TID 0000.0001) %MON ke_vol                       =   1.7486817826145E+22
(PID.TID 0000.0001) %MON vort_r_min                   =  -2.3511136937111E-01
(PID.TID 0000.0001) %MON vort_r_max                   =   2.3511511318090E-01
(PID.TID 0000.0001) %MON vort_a_mean                  =   1.0041301702154E-14
(PID.TID 0000.0001) %MON vort_a_sd                    =   3.1686510662896E-04
(PID.TID 0000.0001) %MON vort_p_mean                  =   1.0041295569152E-14
(PID.TID 0000.0001) %MON vort_p_sd                    =   3.1686510662896E-04
(PID.TID 0000.0001) %MON surfExpan_theta_mean         =  -5.3642524637606E+00
(PID.TID 0000.0001) %MON surfExpan_salt_mean          =   0.0000000000000E+00
(PID.TID 0000.0001) %MON surfExpan_Heat_mean          =  -5.4101490556448E+02
(PID.TID 0000.0001) %MON En_Budget_T2PE_mean          =   1.5456342530780E+02
(PID.TID 0000.0001) // =======================================================
(PID.TID 0000.0001) // End MONITOR dynamic field statistics
(PID.TID 0000.0001) // =======================================================
 cg2d: Sum(rhs),rhsMax =  -3.95516952522712E-16  2.47650463481223E+03
(PID.TID 0000.0001)                    cg2d_init_res =    5.13984106215242E-01
(PID.TID 0000.0001)                       cg2d_iters =    17
(PID.TID 0000.0001)                         cg2d_res =    1.79157339811256E-14
(PID.TID 0000.0001) // =======================================================
(PID.TID 0000.0001) // Begin MONITOR dynamic field statistics
(PID.TID 0000.0001) // =======================================================
(PID.TID 0000.0001) %MON time_tsnumber                =                    10
(PID.TID 0000.0001) %MON time_secondsf                =   1.2000000000000E+04
(PID.TID 0000.0001) %MON dynstat_eta_max              =   4.8674442991409E+03
(PID.TID 0000.0001) %MON dynstat_eta_min              =  -3.5540859418200E+03
(PID.TID 0000.0001) %MON dynstat_eta_mean             =  -1.4759760784727E-13
(PID.TID 0000.0001) %MON dynstat_eta_sd               =   2.8002956201311E+03
(PID.TID 0000.0001) %MON dynstat_eta_del2             =   7.6443077352543E+00
(PID.TID 0000.0001) %MON dynstat_uvel_max             =   1.9991772058578E+01
(PID.TID 0000.0001) %MON dynstat_uvel_min             =  -2.0855477935531E+00
(PID.TID 0000.0001) %MON dynstat_uvel_mean            =   5.2695842819315E+00
(PID.TID 0000.0001) %MON dynstat_uvel_sd              =   5.9121502804361E+00
(PID.TID 0000.0001) %MON dynstat_uvel_del2            =   4.1813187953834E-02
(PID.TID 0000.0001) %MON dynstat_vvel_max             =   2.9178771848219E+01
(PID.TID 0000.0001) %MON dynstat_vvel_min             =  -2.9178770276293E+01
(PID.TID 0000.0001) %MON dynstat_vvel_mean            =   2.6630156074366E-07
(PID.TID 0000.0001) %MON dynstat_vvel_sd              =   1.1134787464270E+01
(PID.TID 0000.0001) %MON dynstat_vvel_del2            =   3.8286001840090E-02
(PID.TID 0000.0001) %MON dynstat_wvel_max             =   4.7178920814757E-01
(PID.TID 0000.0001) %MON dynstat_wvel_min             =  -4.3072886825260E-01
(PID.TID 0000.0001) %MON dynstat_wvel_mean            =   1.1681704849076E-18
(PID.TID 0000.0001) %MON dynstat_wvel_sd              =   2.6838405353830E-01
(PID.TID 0000.0001) %MON dynstat_wvel_del2            =   1.3996407548189E-03
(PID.TID 0000.0001) %MON dynstat_theta_max            =   4.2545066171434E+02
(PID.TID 0000.0001) %MON dynstat_theta_min            =   2.5504444692852E+02
(PID.TID 0000.0001) %MON dynstat_theta_mean           =   3.1920198128155E+02
(PID.TID 0000.0001) %MON dynstat_theta_sd             =   4.5317701398915E+01
(PID.TID 0000.0001) %MON dynstat_theta_del2           =   4.6966625667147E-02
(PID.TID 0000.0001) %MON dynstat_salt_max             =   0.0000000000000E+00
(PID.TID 0000.0001) %MON dynstat_salt_min             =   0.0000000000000E+00
(PID.TID 0000.0001) %MON dynstat_salt_mean            =   0.0000000000000E+00
(PID.TID 0000.0001) %MON dynstat_salt_sd              =   0.0000000000000E+00
(PID.TID 0000.0001) %MON dynstat_salt_del2            =   0.0000000000000E+00
(PID.TID 0000.0001) %MON advcfl_uvel_max              =   7.5938562511396E-06
(PID.TID 0000.0001) %MON advcfl_vvel_max              =   1.1197960294066E-01
(PID.TID 0000.0001) %MON advcfl_wvel_max              =   1.1035745563006E-01
(PID.TID 0000.0001) %MON advcfl_W_hf_max              =   1.1322940995542E-01
(PID.TID 0000.0001) %MON pe_b_mean                    =   3.9208277800628E+01
(PID.TID 0000.0001) %MON ke_max                       =   4.3868529981472E+06
(PID.TID 0000.0001) %MON ke_mean                      =   9.3343466194240E+01
(PID.TID 0000.0001) %MON ke_vol                       =   1.7486817826145E+22
(PID.TID 0000.0001) %MON vort_r_min                   =  -2.7229522880172E-01
(PID.TID 0000.0001) %MON vort_r_max                   =   2.7229870313275E-01
(PID.TID 0000.0001) %MON vort_a_mean                  =   1.5246915120508E-14
(PID.TID 0000.0001) %MON vort_a_sd                    =   3.6770365967985E-04
(PID.TID 0000.0001) %MON vort_p_mean                  =   1.5246912600832E-14
(PID.TID 0000.0001) %MON vort_p_sd                    =   3.6770365967985E-04
(PID.TID 0000.0001) %MON surfExpan_theta_mean         =  -5.0681723239282E+00
(PID.TID 0000.0001) %MON surfExpan_salt_mean          =   0.0000000000000E+00
(PID.TID 0000.0001) %MON surfExpan_Heat_mean          =  -5.1115356514974E+02
(PID.TID 0000.0001) %MON En_Budget_T2PE_mean          =   1.5018884221168E+02
(PID.TID 0000.0001) // =======================================================
(PID.TID 0000.0001) // End MONITOR dynamic field statistics
(PID.TID 0000.0001) // =======================================================
objf_test       314.8    1   31    1 TILE     1   31    1    1
objf_test       629.6    2   31    1 TILE     2   31    1    1
objf_test       944.7    1   32    1 TILE     1   32    1    1
objf_test      1259.8    2   32    1 TILE     2   32    1    1
objf_test      1574.9    1   33    1 TILE     1   33    1    1
objf_test      1890.0    2   33    1 TILE     2   33    1    1
objf_test      2204.8    1   34    1 TILE     1   34    1    1
objf_test      2519.6    2   34    1 TILE     2   34    1    1
objf_test      2833.8    1   35    1 TILE     1   35    1    1
objf_test      3148.0    2   35    1 TILE     2   35    1    1
objf_test      3461.4    1   36    1 TILE     1   36    1    1
objf_test      3774.8    2   36    1 TILE     2   36    1    1
objf_test      4087.0    1   37    1 TILE     1   37    1    1
objf_test      4399.2    2   37    1 TILE     2   37    1    1
objf_test      4710.1    1   38    1 TILE     1   38    1    1
objf_test      5020.9    2   38    1 TILE     2   38    1    1
objf_test      5330.1    1   39    1 TILE     1   39    1    1
objf_test      5639.3    2   39    1 TILE     2   39    1    1
  --> objf_test(bi,bj)   =  626.587786
  --> objf_tracer(bi,bj) =  0.
  --> objf_atl(bi,bj)    =  0.
  local fc =   626.587786
  global fc =   626.587786
 ph-check fcpertplus =   626.587786
(PID.TID 0000.0001)  MDSREADFIELD: opening file: xx_theta.0000000000.001.001.data
 ph-check fcpertminus =   626.587786
(PID.TID 0000.0001)  MDSREADFIELD: opening file: xx_theta.0000000000.001.001.data
(PID.TID 0000.0001) %MON En_BudgetfCori_max           =   1.4540029928789E-04
(PID.TID 0000.0001) %MON En_BudgetfCori_min           =  -1.4540029928789E-04
(PID.TID 0000.0001) %MON En_BudgetfCori_mean          =   0.0000000000000E+00
(PID.TID 0000.0001) %MON En_BudgetfCori_sd            =   1.0284451245737E-04
(PID.TID 0000.0001) %MON En_BudgetfCoriG_max          =   1.4526891053949E-04
(PID.TID 0000.0001) %MON En_BudgetfCoriG_min          =  -1.4544410433286E-04
(PID.TID 0000.0001) %MON En_BudgetfCoriG_mean         =  -2.3086365767121E-06
(PID.TID 0000.0001) %MON En_BudgetfCoriG_sd           =   1.0363181330709E-04
(PID.TID 0000.0001) %MON En_BudgetfCoriCos_max        =   1.4540029928789E-04
(PID.TID 0000.0001) %MON En_BudgetfCoriCos_min        =   3.5693770017430E-06
(PID.TID 0000.0001) %MON En_BudgetfCoriCos_mean       =   9.2601889431869E-05
(PID.TID 0000.0001) %MON En_BudgetfCoriCos_sd         =   4.4742416298653E-05
(PID.TID 0000.0001) // CG2D normalisation factor =          0.2278126663032464164969763E-09
(PID.TID 0000.0001) 
(PID.TID 0000.0001) // =======================================================
(PID.TID 0000.0001) // Field Initial Temperature at iteration          1
(PID.TID 0000.0001) // CMIN =          2.550364452389422E+02
(PID.TID 0000.0001) // CMAX =          3.154764877049333E+02
(PID.TID 0000.0001) // CINT =          2.238520091333006E+00
(PID.TID 0000.0001) // SYMBOLS (CMIN->CMAX): -abcdefghijklmnopqrstuvwxyz+
(PID.TID 0000.0001) //                  0.0: .
(PID.TID 0000.0001) // RANGE I (Lo:Hi:Step):(   1:   2:   1)
(PID.TID 0000.0001) // RANGE J (Lo:Hi:Step):(  64:   1:  -1)
(PID.TID 0000.0001) // RANGE K (Lo:Hi:Step):(   1:   1:   1)
(PID.TID 0000.0001) // =======================================================
(PID.TID 0000.0001) K =   1
(PID.TID 0000.0001) 
(PID.TID 0000.0001) |--J--|12
(PID.TID 0000.0001)     64 --
(PID.TID 0000.0001)     63 --
(PID.TID 0000.0001)     62 --
(PID.TID 0000.0001)     61 aa
(PID.TID 0000.0001)     60 aa
(PID.TID 0000.0001)     59 bb
(PID.TID 0000.0001)     58 cc
(PID.TID 0000.0001)     57 cc
(PID.TID 0000.0001)     56 dd
(PID.TID 0000.0001)     55 ee
(PID.TID 0000.0001)     54 gg
(PID.TID 0000.0001)     53 hh
(PID.TID 0000.0001)     52 ii
(PID.TID 0000.0001)     51 jj
(PID.TID 0000.0001)     50 ll
(PID.TID 0000.0001)     49 mm
(PID.TID 0000.0001)     48 nn
(PID.TID 0000.0001)     47 oo
(PID.TID 0000.0001)     46 qq
(PID.TID 0000.0001)     45 rr
(PID.TID 0000.0001)     44 ss
(PID.TID 0000.0001)     43 tt
(PID.TID 0000.0001)     42 vv
(PID.TID 0000.0001)     41 ww
(PID.TID 0000.0001)     40 xx
(PID.TID 0000.0001)     39 xx
(PID.TID 0000.0001)     38 yy
(PID.TID 0000.0001)     37 zz
(PID.TID 0000.0001)     36 zz
(PID.TID 0000.0001)     35 ++
(PID.TID 0000.0001)     34 ++
(PID.TID 0000.0001)     33 ++
(PID.TID 0000.0001)     32 ++
(PID.TID 0000.0001)     31 ++
(PID.TID 0000.0001)     30 ++
(PID.TID 0000.0001)     29 zz
(PID.TID 0000.0001)     28 zz
(PID.TID 0000.0001)     27 yy
(PID.TID 0000.0001)     26 xx
(PID.TID 0000.0001)     25 xx
(PID.TID 0000.0001)     24 ww
(PID.TID 0000.0001)     23 vv
(PID.TID 0000.0001)     22 tt
(PID.TID 0000.0001)     21 ss
(PID.TID 0000.0001)     20 rr
(PID.TID 0000.0001)     19 qq
(PID.TID 0000.0001)     18 oo
(PID.TID 0000.0001)     17 nn
(PID.TID 0000.0001)     16 mm
(PID.TID 0000.0001)     15 ll
(PID.TID 0000.0001)     14 jj
(PID.TID 0000.0001)     13 ii
(PID.TID 0000.0001)     12 hh
(PID.TID 0000.0001)     11 gg
(PID.TID 0000.0001)     10 ee
(PID.TID 0000.0001)      9 dd
(PID.TID 0000.0001)      8 cc
(PID.TID 0000.0001)      7 cc
(PID.TID 0000.0001)      6 bb
(PID.TID 0000.0001)      5 aa
(PID.TID 0000.0001)      4 aa
(PID.TID 0000.0001)      3 --
(PID.TID 0000.0001)      2 --
(PID.TID 0000.0001)      1 --
(PID.TID 0000.0001) // =======================================================
(PID.TID 0000.0001) // END OF FIELD                                          =
(PID.TID 0000.0001) // =======================================================
(PID.TID 0000.0001) 
(PID.TID 0000.0001) // =======================================================
(PID.TID 0000.0001) // Field Initial Salinity at iteration          1
(PID.TID 0000.0001) // CMIN =          1.000000000000000E+32
(PID.TID 0000.0001) // CMAX =         -1.000000000000000E+32
(PID.TID 0000.0001) // CINT =          0.000000000000000E+00
(PID.TID 0000.0001) // SYMBOLS (CMIN->CMAX): -abcdefghijklmnopqrstuvwxyz+
(PID.TID 0000.0001) //                  0.0: .
(PID.TID 0000.0001) // RANGE I (Lo:Hi:Step):(   1:   2:   1)
(PID.TID 0000.0001) // RANGE J (Lo:Hi:Step):(  64:   1:  -1)
(PID.TID 0000.0001) // RANGE K (Lo:Hi:Step):(   1:   1:   1)
(PID.TID 0000.0001) // =======================================================
(PID.TID 0000.0001) // =======================================================
(PID.TID 0000.0001) // END OF FIELD                                          =
(PID.TID 0000.0001) // =======================================================
(PID.TID 0000.0001) 
(PID.TID 0000.0001) Start initial hydrostatic pressure computation
(PID.TID 0000.0001) Pressure is predetermined for buoyancyRelation ATMOSPHERIC
(PID.TID 0000.0001) 
(PID.TID 0000.0001)  MDSREADFIELD: opening file: xx_theta.0000000000.001.001.data
(PID.TID 0000.0001)  MDSREADFIELD: opening file: xx_salt.0000000000.001.001.data
(PID.TID 0000.0001)  MDSREADFIELD: opening file: xx_diffkr.0000000000.001.001.data
(PID.TID 0000.0001) // =======================================================
(PID.TID 0000.0001) // Model current state
(PID.TID 0000.0001) // =======================================================
(PID.TID 0000.0001) 
(PID.TID 0000.0001) // =======================================================
(PID.TID 0000.0001) // Begin MONITOR dynamic field statistics
(PID.TID 0000.0001) // =======================================================
(PID.TID 0000.0001) %MON time_tsnumber                =                     0
(PID.TID 0000.0001) %MON time_secondsf                =   0.0000000000000E+00
(PID.TID 0000.0001) %MON dynstat_eta_max              =   0.0000000000000E+00
(PID.TID 0000.0001) %MON dynstat_eta_min              =   0.0000000000000E+00
(PID.TID 0000.0001) %MON dynstat_eta_mean             =   0.0000000000000E+00
(PID.TID 0000.0001) %MON dynstat_eta_sd               =   0.0000000000000E+00
(PID.TID 0000.0001) %MON dynstat_eta_del2             =   0.0000000000000E+00
(PID.TID 0000.0001) %MON dynstat_uvel_max             =   0.0000000000000E+00
(PID.TID 0000.0001) %MON dynstat_uvel_min             =   0.0000000000000E+00
(PID.TID 0000.0001) %MON dynstat_uvel_mean            =   0.0000000000000E+00
(PID.TID 0000.0001) %MON dynstat_uvel_sd              =   0.0000000000000E+00
(PID.TID 0000.0001) %MON dynstat_uvel_del2            =   0.0000000000000E+00
(PID.TID 0000.0001) %MON dynstat_vvel_max             =   0.0000000000000E+00
(PID.TID 0000.0001) %MON dynstat_vvel_min             =   0.0000000000000E+00
(PID.TID 0000.0001) %MON dynstat_vvel_mean            =   0.0000000000000E+00
(PID.TID 0000.0001) %MON dynstat_vvel_sd              =   0.0000000000000E+00
(PID.TID 0000.0001) %MON dynstat_vvel_del2            =   0.0000000000000E+00
(PID.TID 0000.0001) %MON dynstat_wvel_max             =   0.0000000000000E+00
(PID.TID 0000.0001) %MON dynstat_wvel_min             =   0.0000000000000E+00
(PID.TID 0000.0001) %MON dynstat_wvel_mean            =   0.0000000000000E+00
(PID.TID 0000.0001) %MON dynstat_wvel_sd              =   0.0000000000000E+00
(PID.TID 0000.0001) %MON dynstat_wvel_del2            =   0.0000000000000E+00
(PID.TID 0000.0001) %MON dynstat_theta_max            =   4.1921910192279E+02
(PID.TID 0000.0001) %MON dynstat_theta_min            =   2.5503644523894E+02
(PID.TID 0000.0001) %MON dynstat_theta_mean           =   3.1867742639043E+02
(PID.TID 0000.0001) %MON dynstat_theta_sd             =   4.5642507144526E+01
(PID.TID 0000.0001) %MON dynstat_theta_del2           =   4.0241168714763E-02
(PID.TID 0000.0001) %MON dynstat_salt_max             =   0.0000000000000E+00
(PID.TID 0000.0001) %MON dynstat_salt_min             =   0.0000000000000E+00
(PID.TID 0000.0001) %MON dynstat_salt_mean            =   0.0000000000000E+00
(PID.TID 0000.0001) %MON dynstat_salt_sd              =   0.0000000000000E+00
(PID.TID 0000.0001) %MON dynstat_salt_del2            =   0.0000000000000E+00
(PID.TID 0000.0001) %MON advcfl_uvel_max              =   0.0000000000000E+00
(PID.TID 0000.0001) %MON advcfl_vvel_max              =   0.0000000000000E+00
(PID.TID 0000.0001) %MON advcfl_wvel_max              =   0.0000000000000E+00
(PID.TID 0000.0001) %MON advcfl_W_hf_max              =   0.0000000000000E+00
(PID.TID 0000.0001) %MON pe_b_mean                    =   0.0000000000000E+00
(PID.TID 0000.0001) %MON ke_max                       =   0.0000000000000E+00
(PID.TID 0000.0001) %MON ke_mean                      =   0.0000000000000E+00
(PID.TID 0000.0001) %MON ke_vol                       =   1.7486817826145E+22
(PID.TID 0000.0001) %MON vort_r_min                   =   0.0000000000000E+00
(PID.TID 0000.0001) %MON vort_r_max                   =   0.0000000000000E+00
(PID.TID 0000.0001) %MON vort_a_mean                  =  -2.9209451854128E-21
(PID.TID 0000.0001) %MON vort_a_sd                    =   8.3955319514376E-05
(PID.TID 0000.0001) %MON vort_p_mean                  =   4.8186785874352E-22
(PID.TID 0000.0001) %MON vort_p_sd                    =   8.3955319514376E-05
(PID.TID 0000.0001) %MON surfExpan_theta_mean         =   0.0000000000000E+00
(PID.TID 0000.0001) %MON surfExpan_salt_mean          =   0.0000000000000E+00
(PID.TID 0000.0001) %MON surfExpan_Heat_mean          =   0.0000000000000E+00
(PID.TID 0000.0001) %MON En_Budget_T2PE_mean          =   0.0000000000000E+00
(PID.TID 0000.0001) // =======================================================
(PID.TID 0000.0001) // End MONITOR dynamic field statistics
(PID.TID 0000.0001) // =======================================================
 cg2d: Sum(rhs),rhsMax =  -2.08166817117217E-15  8.97359314695382E+01
(PID.TID 0000.0001)                    cg2d_init_res =    3.34521744979025E+00
(PID.TID 0000.0001)                       cg2d_iters =    19
(PID.TID 0000.0001)                         cg2d_res =    4.03837880458055E-14
(PID.TID 0000.0001) // =======================================================
(PID.TID 0000.0001) // Begin MONITOR dynamic field statistics
(PID.TID 0000.0001) // =======================================================
(PID.TID 0000.0001) %MON time_tsnumber                =                     1
(PID.TID 0000.0001) %MON time_secondsf                =   1.2000000000000E+03
(PID.TID 0000.0001) %MON dynstat_eta_max              =   1.4335929277102E+02
(PID.TID 0000.0001) %MON dynstat_eta_min              =  -9.2440656691674E+01
(PID.TID 0000.0001) %MON dynstat_eta_mean             =  -5.5294954726085E-15
(PID.TID 0000.0001) %MON dynstat_eta_sd               =   7.6540739695673E+01
(PID.TID 0000.0001) %MON dynstat_eta_del2             =   1.0992340359757E+00
(PID.TID 0000.0001) %MON dynstat_uvel_max             =   5.8502081897574E-16
(PID.TID 0000.0001) %MON dynstat_uvel_min             =  -5.8502081897574E-16
(PID.TID 0000.0001) %MON dynstat_uvel_mean            =   0.0000000000000E+00
(PID.TID 0000.0001) %MON dynstat_uvel_sd              =   2.0624769740894E-17
(PID.TID 0000.0001) %MON dynstat_uvel_del2            =   3.1290378271080E-17
(PID.TID 0000.0001) %MON dynstat_vvel_max             =   5.2726881150810E+00
(PID.TID 0000.0001) %MON dynstat_vvel_min             =  -5.2726881151489E+00
(PID.TID 0000.0001) %MON dynstat_vvel_mean            =  -8.2600361784669E-07
(PID.TID 0000.0001) %MON dynstat_vvel_sd              =   1.9374167117061E+00
(PID.TID 0000.0001) %MON dynstat_vvel_del2            =   1.5139398918252E-02
(PID.TID 0000.0001) %MON dynstat_wvel_max             =   1.1946607730912E-01
(PID.TID 0000.0001) %MON dynstat_wvel_min             =  -7.7033880576391E-02
(PID.TID 0000.0001) %MON dynstat_wvel_mean            =   3.9764871522223E-19
(PID.TID 0000.0001) %MON dynstat_wvel_sd              =   5.1844208381623E-02
(PID.TID 0000.0001) %MON dynstat_wvel_del2            =   1.6735908200244E-03
(PID.TID 0000.0001) %MON dynstat_theta_max            =   4.1955348096026E+02
(PID.TID 0000.0001) %MON dynstat_theta_min            =   2.5503592500825E+02
(PID.TID 0000.0001) %MON dynstat_theta_mean           =   3.1869076195702E+02
(PID.TID 0000.0001) %MON dynstat_theta_sd             =   4.5634439734643E+01
(PID.TID 0000.0001) %MON dynstat_theta_del2           =   4.2535901267386E-02
(PID.TID 0000.0001) %MON dynstat_salt_max             =   0.0000000000000E+00
(PID.TID 0000.0001) %MON dynstat_salt_min             =   0.0000000000000E+00
(PID.TID 0000.0001) %MON dynstat_salt_mean            =   0.0000000000000E+00
(PID.TID 0000.0001) %MON dynstat_salt_sd              =   0.0000000000000E+00
(PID.TID 0000.0001) %MON dynstat_salt_del2            =   0.0000000000000E+00
(PID.TID 0000.0001) %MON advcfl_uvel_max              =   4.1681650333608E-21
(PID.TID 0000.0001) %MON advcfl_vvel_max              =   2.0235036780698E-02
(PID.TID 0000.0001) %MON advcfl_wvel_max              =   2.8671858554188E-02
(PID.TID 0000.0001) %MON advcfl_W_hf_max              =   2.8482436498480E-02
(PID.TID 0000.0001) %MON pe_b_mean                    =   2.9292424165804E-02
(PID.TID 0000.0001) %MON ke_max                       =   1.3026550730488E+01
(PID.TID 0000.0001) %MON ke_mean                      =   1.8764148869544E+00
(PID.TID 0000.0001) %MON ke_vol                       =   1.7486817826145E+22
(PID.TID 0000.0001) %MON vort_r_min                   =  -2.5753187434892E-21
(PID.TID 0000.0001) %MON vort_r_max                   =   3.2394289134380E-21
(PID.TID 0000.0001) %MON vort_a_mean                  =  -2.9209451854128E-21
(PID.TID 0000.0001) %MON vort_a_sd                    =   8.3955319514376E-05
(PID.TID 0000.0001) %MON vort_p_mean                  =   4.8186785874352E-22
(PID.TID 0000.0001) %MON vort_p_sd                    =   8.3955319514376E-05
(PID.TID 0000.0001) %MON surfExpan_theta_mean         =  -1.1110650091697E+00
(PID.TID 0000.0001) %MON surfExpan_salt_mean          =   0.0000000000000E+00
(PID.TID 0000.0001) %MON surfExpan_Heat_mean          =  -1.1205712912896E+02
(PID.TID 0000.0001) %MON En_Budget_T2PE_mean          =   3.0624070362058E+01
(PID.TID 0000.0001) // =======================================================
(PID.TID 0000.0001) // End MONITOR dynamic field statistics
(PID.TID 0000.0001) // =======================================================
 cg2d: Sum(rhs),rhsMax =  -2.77555756156289E-17  1.89073450912133E+02
(PID.TID 0000.0001)                    cg2d_init_res =    2.90222741484260E+00
(PID.TID 0000.0001)                       cg2d_iters =    18
(PID.TID 0000.0001)                         cg2d_res =    5.23668833509816E-14
(PID.TID 0000.0001) // =======================================================
(PID.TID 0000.0001) // Begin MONITOR dynamic field statistics
(PID.TID 0000.0001) // =======================================================
(PID.TID 0000.0001) %MON time_tsnumber                =                     2
(PID.TID 0000.0001) %MON time_secondsf                =   2.4000000000000E+03
(PID.TID 0000.0001) %MON dynstat_eta_max              =   4.2436069392840E+02
(PID.TID 0000.0001) %MON dynstat_eta_min              =  -2.7278743290320E+02
(PID.TID 0000.0001) %MON dynstat_eta_mean             =   6.8463731474917E-15
(PID.TID 0000.0001) %MON dynstat_eta_sd               =   2.2413795077933E+02
(PID.TID 0000.0001) %MON dynstat_eta_del2             =   2.1382725942736E+00
(PID.TID 0000.0001) %MON dynstat_uvel_max             =   8.7088558283252E-01
(PID.TID 0000.0001) %MON dynstat_uvel_min             =   3.8323449779848E-05
(PID.TID 0000.0001) %MON dynstat_uvel_mean            =   2.3378390436229E-01
(PID.TID 0000.0001) %MON dynstat_uvel_sd              =   2.2937808363250E-01
(PID.TID 0000.0001) %MON dynstat_uvel_del2            =   2.4523264792781E-03
(PID.TID 0000.0001) %MON dynstat_vvel_max             =   1.0228690360855E+01
(PID.TID 0000.0001) %MON dynstat_vvel_min             =  -1.0228690361791E+01
(PID.TID 0000.0001) %MON dynstat_vvel_mean            =  -1.3284292613377E-06
(PID.TID 0000.0001) %MON dynstat_vvel_sd              =   3.8107087634958E+00
(PID.TID 0000.0001) %MON dynstat_vvel_del2            =   2.5136876068252E-02
(PID.TID 0000.0001) %MON dynstat_wvel_max             =   2.3419798825859E-01
(PID.TID 0000.0001) %MON dynstat_wvel_min             =  -1.5028898017625E-01
(PID.TID 0000.0001) %MON dynstat_wvel_mean            =   4.4284951059751E-19
(PID.TID 0000.0001) %MON dynstat_wvel_sd              =   9.9653323628787E-02
(PID.TID 0000.0001) %MON dynstat_wvel_del2            =   1.8870494553144E-03
(PID.TID 0000.0001) %MON dynstat_theta_max            =   4.2021985667295E+02
(PID.TID 0000.0001) %MON dynstat_theta_min            =   2.5503570561733E+02
(PID.TID 0000.0001) %MON dynstat_theta_mean           =   3.1872449234425E+02
(PID.TID 0000.0001) %MON dynstat_theta_sd             =   4.5614070815330E+01
(PID.TID 0000.0001) %MON dynstat_theta_del2           =   4.3855137164272E-02
(PID.TID 0000.0001) %MON dynstat_salt_max             =   0.0000000000000E+00
(PID.TID 0000.0001) %MON dynstat_salt_min             =   0.0000000000000E+00
(PID.TID 0000.0001) %MON dynstat_salt_mean            =   0.0000000000000E+00
(PID.TID 0000.0001) %MON dynstat_salt_sd              =   0.0000000000000E+00
(PID.TID 0000.0001) %MON dynstat_salt_del2            =   0.0000000000000E+00
(PID.TID 0000.0001) %MON advcfl_uvel_max              =   3.0856231979444E-07
(PID.TID 0000.0001) %MON advcfl_vvel_max              =   3.9254725705193E-02
(PID.TID 0000.0001) %MON advcfl_wvel_max              =   5.6207517182061E-02
(PID.TID 0000.0001) %MON advcfl_W_hf_max              =   5.5934753936488E-02
(PID.TID 0000.0001) %MON pe_b_mean                    =   2.5118910489779E-01
(PID.TID 0000.0001) %MON ke_max                       =   8.3726296511083E+03
(PID.TID 0000.0001) %MON ke_mean                      =   7.3129326349474E+00
(PID.TID 0000.0001) %MON ke_vol                       =   1.7486817826145E+22
(PID.TID 0000.0001) %MON vort_r_min                   =  -1.1711160942523E-02
(PID.TID 0000.0001) %MON vort_r_max                   =   1.1708767949918E-02
(PID.TID 0000.0001) %MON vort_a_mean                  =  -1.3612640389270E-14
(PID.TID 0000.0001) %MON vort_a_sd                    =   8.5416162301595E-05
(PID.TID 0000.0001) %MON vort_p_mean                  =  -1.3612638481827E-14
(PID.TID 0000.0001) %MON vort_p_sd                    =   8.5416162301595E-05
(PID.TID 0000.0001) %MON surfExpan_theta_mean         =  -2.1724118805005E+00
(PID.TID 0000.0001) %MON surfExpan_salt_mean          =   0.0000000000000E+00
(PID.TID 0000.0001) %MON surfExpan_Heat_mean          =  -2.1909990559098E+02
(PID.TID 0000.0001) %MON En_Budget_T2PE_mean          =   5.9772694242571E+01
(PID.TID 0000.0001) // =======================================================
(PID.TID 0000.0001) // End MONITOR dynamic field statistics
(PID.TID 0000.0001) // =======================================================
 cg2d: Sum(rhs),rhsMax =  -1.59594559789866E-15  3.69983935898387E+02
(PID.TID 0000.0001)                    cg2d_init_res =    2.11083731273406E+00
(PID.TID 0000.0001)                       cg2d_iters =    18
(PID.TID 0000.0001)                         cg2d_res =    3.26442042480681E-14
(PID.TID 0000.0001) // =======================================================
(PID.TID 0000.0001) // Begin MONITOR dynamic field statistics
(PID.TID 0000.0001) // =======================================================
(PID.TID 0000.0001) %MON time_tsnumber                =                     3
(PID.TID 0000.0001) %MON time_secondsf                =   3.6000000000000E+03
(PID.TID 0000.0001) %MON dynstat_eta_max              =   8.2450408987709E+02
(PID.TID 0000.0001) %MON dynstat_eta_min              =  -5.3368676356714E+02
(PID.TID 0000.0001) %MON dynstat_eta_mean             =   1.4278366852241E-14
(PID.TID 0000.0001) %MON dynstat_eta_sd               =   4.3546365685336E+02
(PID.TID 0000.0001) %MON dynstat_eta_del2             =   2.5720214193023E+00
(PID.TID 0000.0001) %MON dynstat_uvel_max             =   2.2294211941128E+00
(PID.TID 0000.0001) %MON dynstat_uvel_min             =  -1.8620007243448E-02
(PID.TID 0000.0001) %MON dynstat_uvel_mean            =   6.0431545275741E-01
(PID.TID 0000.0001) %MON dynstat_uvel_sd              =   5.9909585296905E-01
(PID.TID 0000.0001) %MON dynstat_uvel_del2            =   6.1771583782850E-03
(PID.TID 0000.0001) %MON dynstat_vvel_max             =   1.4565248770865E+01
(PID.TID 0000.0001) %MON dynstat_vvel_min             =  -1.4565248777376E+01
(PID.TID 0000.0001) %MON dynstat_vvel_mean            =  -1.4594444043033E-06
(PID.TID 0000.0001) %MON dynstat_vvel_sd              =   5.5335232949034E+00
(PID.TID 0000.0001) %MON dynstat_vvel_del2            =   3.0427168245154E-02
(PID.TID 0000.0001) %MON dynstat_wvel_max             =   3.3345282995733E-01
(PID.TID 0000.0001) %MON dynstat_wvel_min             =  -2.1753228033568E-01
(PID.TID 0000.0001) %MON dynstat_wvel_mean            =   2.6217586682735E-18
(PID.TID 0000.0001) %MON dynstat_wvel_sd              =   1.4266623743304E-01
(PID.TID 0000.0001) %MON dynstat_wvel_del2            =   1.9144020107207E-03
(PID.TID 0000.0001) %MON dynstat_theta_max            =   4.2091730514592E+02
(PID.TID 0000.0001) %MON dynstat_theta_min            =   2.5503561444714E+02
(PID.TID 0000.0001) %MON dynstat_theta_mean           =   3.1876890079024E+02
(PID.TID 0000.0001) %MON dynstat_theta_sd             =   4.5587072177502E+01
(PID.TID 0000.0001) %MON dynstat_theta_del2           =   4.5686617119160E-02
(PID.TID 0000.0001) %MON dynstat_salt_max             =   0.0000000000000E+00
(PID.TID 0000.0001) %MON dynstat_salt_min             =   0.0000000000000E+00
(PID.TID 0000.0001) %MON dynstat_salt_mean            =   0.0000000000000E+00
(PID.TID 0000.0001) %MON dynstat_salt_sd              =   0.0000000000000E+00
(PID.TID 0000.0001) %MON dynstat_salt_del2            =   0.0000000000000E+00
(PID.TID 0000.0001) %MON advcfl_uvel_max              =   8.1387042094869E-07
(PID.TID 0000.0001) %MON advcfl_vvel_max              =   5.5897170151870E-02
(PID.TID 0000.0001) %MON advcfl_wvel_max              =   8.0028679189759E-02
(PID.TID 0000.0001) %MON advcfl_W_hf_max              =   7.9835956234900E-02
(PID.TID 0000.0001) %MON pe_b_mean                    =   9.4814298220052E-01
(PID.TID 0000.0001) %MON ke_max                       =   5.4649248921527E+04
(PID.TID 0000.0001) %MON ke_mean                      =   1.5668958561042E+01
(PID.TID 0000.0001) %MON ke_vol                       =   1.7486817826145E+22
(PID.TID 0000.0001) %MON vort_r_min                   =  -3.0662307793981E-02
(PID.TID 0000.0001) %MON vort_r_max                   =   3.0658947536092E-02
(PID.TID 0000.0001) %MON vort_a_mean                  =   4.7433349209759E-15
(PID.TID 0000.0001) %MON vort_a_sd                    =   9.3006693795440E-05
(PID.TID 0000.0001) %MON vort_p_mean                  =   4.7433376719264E-15
(PID.TID 0000.0001) %MON vort_p_sd                    =   9.3006693795440E-05
(PID.TID 0000.0001) %MON surfExpan_theta_mean         =  -3.1263901223879E+00
(PID.TID 0000.0001) %MON surfExpan_salt_mean          =   0.0000000000000E+00
(PID.TID 0000.0001) %MON surfExpan_Heat_mean          =  -3.1531395441363E+02
(PID.TID 0000.0001) %MON En_Budget_T2PE_mean          =   8.5968292966432E+01
(PID.TID 0000.0001) // =======================================================
(PID.TID 0000.0001) // End MONITOR dynamic field statistics
(PID.TID 0000.0001) // =======================================================
 cg2d: Sum(rhs),rhsMax =  -2.36616282123236E-15  6.00188020664147E+02
(PID.TID 0000.0001)                    cg2d_init_res =    1.63582176419243E+00
(PID.TID 0000.0001)                       cg2d_iters =    18
(PID.TID 0000.0001)                         cg2d_res =    1.85305648280547E-14
(PID.TID 0000.0001) // =======================================================
(PID.TID 0000.0001) // Begin MONITOR dynamic field statistics
(PID.TID 0000.0001) // =======================================================
(PID.TID 0000.0001) %MON time_tsnumber                =                     4
(PID.TID 0000.0001) %MON time_secondsf                =   4.8000000000000E+03
(PID.TID 0000.0001) %MON dynstat_eta_max              =   1.3213513561147E+03
(PID.TID 0000.0001) %MON dynstat_eta_min              =  -8.6541627901438E+02
(PID.TID 0000.0001) %MON dynstat_eta_mean             =   1.0425370802881E-14
(PID.TID 0000.0001) %MON dynstat_eta_sd               =   7.0179738536512E+02
(PID.TID 0000.0001) %MON dynstat_eta_del2             =   3.1001716386355E+00
(PID.TID 0000.0001) %MON dynstat_uvel_max             =   4.0093965055553E+00
(PID.TID 0000.0001) %MON dynstat_uvel_min             =  -7.2580075435613E-02
(PID.TID 0000.0001) %MON dynstat_uvel_mean            =   1.0932719009993E+00
(PID.TID 0000.0001) %MON dynstat_uvel_sd              =   1.0964636405584E+00
(PID.TID 0000.0001) %MON dynstat_uvel_del2            =   1.0567441833876E-02
(PID.TID 0000.0001) %MON dynstat_vvel_max             =   1.8296281264820E+01
(PID.TID 0000.0001) %MON dynstat_vvel_min             =  -1.8296281294032E+01
(PID.TID 0000.0001) %MON dynstat_vvel_mean            =  -1.3843679401569E-06
(PID.TID 0000.0001) %MON dynstat_vvel_sd              =   7.0706043909687E+00
(PID.TID 0000.0001) %MON dynstat_vvel_del2            =   3.3581652032620E-02
(PID.TID 0000.0001) %MON dynstat_wvel_max             =   4.1431821124611E-01
(PID.TID 0000.0001) %MON dynstat_wvel_min             =  -2.7771168429376E-01
(PID.TID 0000.0001) %MON dynstat_wvel_mean            =   3.1819972798918E-18
(PID.TID 0000.0001) %MON dynstat_wvel_sd              =   1.8057780948940E-01
(PID.TID 0000.0001) %MON dynstat_wvel_del2            =   1.7880819848770E-03
(PID.TID 0000.0001) %MON dynstat_theta_max            =   4.2160298209269E+02
(PID.TID 0000.0001) %MON dynstat_theta_min            =   2.5503565711830E+02
(PID.TID 0000.0001) %MON dynstat_theta_mean           =   3.1882219194357E+02
(PID.TID 0000.0001) %MON dynstat_theta_sd             =   4.5554486135752E+01
(PID.TID 0000.0001) %MON dynstat_theta_del2           =   4.6837023903117E-02
(PID.TID 0000.0001) %MON dynstat_salt_max             =   0.0000000000000E+00
(PID.TID 0000.0001) %MON dynstat_salt_min             =   0.0000000000000E+00
(PID.TID 0000.0001) %MON dynstat_salt_mean            =   0.0000000000000E+00
(PID.TID 0000.0001) %MON dynstat_salt_sd              =   0.0000000000000E+00
(PID.TID 0000.0001) %MON dynstat_salt_del2            =   0.0000000000000E+00
(PID.TID 0000.0001) %MON advcfl_uvel_max              =   1.4927750445495E-06
(PID.TID 0000.0001) %MON advcfl_vvel_max              =   7.0215783078659E-02
(PID.TID 0000.0001) %MON advcfl_wvel_max              =   9.9369453247534E-02
(PID.TID 0000.0001) %MON advcfl_W_hf_max              =   9.9436370699067E-02
(PID.TID 0000.0001) %MON pe_b_mean                    =   2.4625978505266E+00
(PID.TID 0000.0001) %MON ke_max                       =   1.7658678146996E+05
(PID.TID 0000.0001) %MON ke_mean                      =   2.6190562085403E+01
(PID.TID 0000.0001) %MON ke_vol                       =   1.7486817826145E+22
(PID.TID 0000.0001) %MON vort_r_min                   =  -5.5821495800142E-02
(PID.TID 0000.0001) %MON vort_r_max                   =   5.5817620584823E-02
(PID.TID 0000.0001) %MON vort_a_mean                  =   1.3285409976133E-14
(PID.TID 0000.0001) %MON vort_a_sd                    =   1.1052251842842E-04
(PID.TID 0000.0001) %MON vort_p_mean                  =   1.3285404709512E-14
(PID.TID 0000.0001) %MON vort_p_sd                    =   1.1052251842842E-04
(PID.TID 0000.0001) %MON surfExpan_theta_mean         =  -3.9465842741898E+00
(PID.TID 0000.0001) %MON surfExpan_salt_mean          =   0.0000000000000E+00
(PID.TID 0000.0001) %MON surfExpan_Heat_mean          =  -3.9803512844103E+02
(PID.TID 0000.0001) %MON En_Budget_T2PE_mean          =   1.0858605836444E+02
(PID.TID 0000.0001) // =======================================================
(PID.TID 0000.0001) // End MONITOR dynamic field statistics
(PID.TID 0000.0001) // =======================================================
 cg2d: Sum(rhs),rhsMax =  -5.68989300120393E-16  8.71578060600886E+02
(PID.TID 0000.0001)                    cg2d_init_res =    1.31214030586358E+00
(PID.TID 0000.0001)                       cg2d_iters =    17
(PID.TID 0000.0001)                         cg2d_res =    6.51539992782962E-14
(PID.TID 0000.0001) // =======================================================
(PID.TID 0000.0001) // Begin MONITOR dynamic field statistics
(PID.TID 0000.0001) // =======================================================
(PID.TID 0000.0001) %MON time_tsnumber                =                     5
(PID.TID 0000.0001) %MON time_secondsf                =   6.0000000000000E+03
(PID.TID 0000.0001) %MON dynstat_eta_max              =   1.8890003321065E+03
(PID.TID 0000.0001) %MON dynstat_eta_min              =  -1.2560243582907E+03
(PID.TID 0000.0001) %MON dynstat_eta_mean             =   9.8400796366009E-15
(PID.TID 0000.0001) %MON dynstat_eta_sd               =   1.0127026151369E+03
(PID.TID 0000.0001) %MON dynstat_eta_del2             =   3.6962929659114E+00
(PID.TID 0000.0001) %MON dynstat_uvel_max             =   6.1544675449576E+00
(PID.TID 0000.0001) %MON dynstat_uvel_min             =  -1.8651685946415E-01
(PID.TID 0000.0001) %MON dynstat_uvel_mean            =   1.6817335261479E+00
(PID.TID 0000.0001) %MON dynstat_uvel_sd              =   1.7094971377259E+00
(PID.TID 0000.0001) %MON dynstat_uvel_del2            =   1.5548429255399E-02
(PID.TID 0000.0001) %MON dynstat_vvel_max             =   2.1567476136927E+01
(PID.TID 0000.0001) %MON dynstat_vvel_min             =  -2.1567476191778E+01
(PID.TID 0000.0001) %MON dynstat_vvel_mean            =  -1.2246544084937E-06
(PID.TID 0000.0001) %MON dynstat_vvel_sd              =   8.3873322502822E+00
(PID.TID 0000.0001) %MON dynstat_vvel_del2            =   3.5367682171407E-02
(PID.TID 0000.0001) %MON dynstat_wvel_max             =   4.7510456041844E-01
(PID.TID 0000.0001) %MON dynstat_wvel_min             =  -3.2874760552247E-01
(PID.TID 0000.0001) %MON dynstat_wvel_mean            =   1.1511818191792E-18
(PID.TID 0000.0001) %MON dynstat_wvel_sd              =   2.1261943097396E-01
(PID.TID 0000.0001) %MON dynstat_wvel_del2            =   1.6156823361252E-03
(PID.TID 0000.0001) %MON dynstat_theta_max            =   4.2224749969091E+02
(PID.TID 0000.0001) %MON dynstat_theta_min            =   2.5503591339804E+02
(PID.TID 0000.0001) %MON dynstat_theta_mean           =   3.1888226664016E+02
(PID.TID 0000.0001) %MON dynstat_theta_sd             =   4.5517530227566E+01
(PID.TID 0000.0001) %MON dynstat_theta_del2           =   4.7263986763406E-02
(PID.TID 0000.0001) %MON dynstat_salt_max             =   0.0000000000000E+00
(PID.TID 0000.0001) %MON dynstat_salt_min             =   0.0000000000000E+00
(PID.TID 0000.0001) %MON dynstat_salt_mean            =   0.0000000000000E+00
(PID.TID 0000.0001) %MON dynstat_salt_sd              =   0.0000000000000E+00
(PID.TID 0000.0001) %MON dynstat_salt_del2            =   0.0000000000000E+00
(PID.TID 0000.0001) %MON advcfl_uvel_max              =   2.3232540497295E-06
(PID.TID 0000.0001) %MON advcfl_vvel_max              =   8.2769673547270E-02
(PID.TID 0000.0001) %MON advcfl_wvel_max              =   1.1353004335358E-01
(PID.TID 0000.0001) %MON advcfl_W_hf_max              =   1.1402509450042E-01
(PID.TID 0000.0001) %MON pe_b_mean                    =   5.1278329335253E+00
(PID.TID 0000.0001) %MON ke_max                       =   4.1593071900742E+05
(PID.TID 0000.0001) %MON ke_mean                      =   3.8042200821182E+01
(PID.TID 0000.0001) %MON ke_vol                       =   1.7486817826145E+22
(PID.TID 0000.0001) %MON vort_r_min                   =  -8.6231889386537E-02
(PID.TID 0000.0001) %MON vort_r_max                   =   8.6227715472923E-02
(PID.TID 0000.0001) %MON vort_a_mean                  =   1.1467415612493E-14
(PID.TID 0000.0001) %MON vort_a_sd                    =   1.3862110928495E-04
(PID.TID 0000.0001) %MON vort_p_mean                  =   1.1467424669664E-14
(PID.TID 0000.0001) %MON vort_p_sd                    =   1.3862110928495E-04
(PID.TID 0000.0001) %MON surfExpan_theta_mean         =  -4.6074951532663E+00
(PID.TID 0000.0001) %MON surfExpan_salt_mean          =   0.0000000000000E+00
(PID.TID 0000.0001) %MON surfExpan_Heat_mean          =  -4.6469169228579E+02
(PID.TID 0000.0001) %MON En_Budget_T2PE_mean          =   1.2705886144975E+02
(PID.TID 0000.0001) // =======================================================
(PID.TID 0000.0001) // End MONITOR dynamic field statistics
(PID.TID 0000.0001) // =======================================================
 cg2d: Sum(rhs),rhsMax =  -4.16333634234434E-17  1.17463757357311E+03
(PID.TID 0000.0001)                    cg2d_init_res =    1.07483844322023E+00
(PID.TID 0000.0001)                       cg2d_iters =    17
(PID.TID 0000.0001)                         cg2d_res =    4.83571292946655E-14
(PID.TID 0000.0001) // =======================================================
(PID.TID 0000.0001) // Begin MONITOR dynamic field statistics
(PID.TID 0000.0001) // =======================================================
(PID.TID 0000.0001) %MON time_tsnumber                =                     6
(PID.TID 0000.0001) %MON time_secondsf                =   7.2000000000000E+03
(PID.TID 0000.0001) %MON dynstat_eta_max              =   2.4997621256195E+03
(PID.TID 0000.0001) %MON dynstat_eta_min              =  -1.6915056491018E+03
(PID.TID 0000.0001) %MON dynstat_eta_mean             =   5.6787150748222E-14
(PID.TID 0000.0001) %MON dynstat_eta_sd               =   1.3563939998297E+03
(PID.TID 0000.0001) %MON dynstat_eta_del2             =   4.2695654148021E+00
(PID.TID 0000.0001) %MON dynstat_uvel_max             =   8.6004656805694E+00
(PID.TID 0000.0001) %MON dynstat_uvel_min             =  -3.6890561832053E-01
(PID.TID 0000.0001) %MON dynstat_uvel_mean            =   2.3473627712931E+00
(PID.TID 0000.0001) %MON dynstat_uvel_sd              =   2.4231953292176E+00
(PID.TID 0000.0001) %MON dynstat_uvel_del2            =   2.0770993851919E-02
(PID.TID 0000.0001) %MON dynstat_vvel_max             =   2.4351166815467E+01
(PID.TID 0000.0001) %MON dynstat_vvel_min             =  -2.4351166975029E+01
(PID.TID 0000.0001) %MON dynstat_vvel_mean            =  -1.0350952195919E-06
(PID.TID 0000.0001) %MON dynstat_vvel_sd              =   9.4576618299970E+00
(PID.TID 0000.0001) %MON dynstat_vvel_del2            =   3.6062991566940E-02
(PID.TID 0000.0001) %MON dynstat_wvel_max             =   5.1339149726903E-01
(PID.TID 0000.0001) %MON dynstat_wvel_min             =  -3.6907331895985E-01
(PID.TID 0000.0001) %MON dynstat_wvel_mean            =   3.0502976888253E-18
(PID.TID 0000.0001) %MON dynstat_wvel_sd              =   2.3810219031554E-01
(PID.TID 0000.0001) %MON dynstat_wvel_del2            =   1.4839440002734E-03
(PID.TID 0000.0001) %MON dynstat_theta_max            =   4.2283844408209E+02
(PID.TID 0000.0001) %MON dynstat_theta_min            =   2.5503649984868E+02
(PID.TID 0000.0001) %MON dynstat_theta_mean           =   3.1894682939027E+02
(PID.TID 0000.0001) %MON dynstat_theta_sd             =   4.5477572491737E+01
(PID.TID 0000.0001) %MON dynstat_theta_del2           =   4.7260283036514E-02
(PID.TID 0000.0001) %MON dynstat_salt_max             =   0.0000000000000E+00
(PID.TID 0000.0001) %MON dynstat_salt_min             =   0.0000000000000E+00
(PID.TID 0000.0001) %MON dynstat_salt_mean            =   0.0000000000000E+00
(PID.TID 0000.0001) %MON dynstat_salt_sd              =   0.0000000000000E+00
(PID.TID 0000.0001) %MON dynstat_salt_del2            =   0.0000000000000E+00
(PID.TID 0000.0001) %MON advcfl_uvel_max              =   3.2763633564948E-06
(PID.TID 0000.0001) %MON advcfl_vvel_max              =   9.3452665629306E-02
(PID.TID 0000.0001) %MON advcfl_wvel_max              =   1.2215337699724E-01
(PID.TID 0000.0001) %MON advcfl_W_hf_max              =   1.2321395934457E-01
(PID.TID 0000.0001) %MON pe_b_mean                    =   9.1990234138696E+00
(PID.TID 0000.0001) %MON ke_max                       =   8.1208791863972E+05
(PID.TID 0000.0001) %MON ke_mean                      =   5.0406268076533E+01
(PID.TID 0000.0001) %MON ke_vol                       =   1.7486817826145E+22
(PID.TID 0000.0001) %MON vort_r_min                   =  -1.2071592911898E-01
(PID.TID 0000.0001) %MON vort_r_max                   =   1.2071168223456E-01
(PID.TID 0000.0001) %MON vort_a_mean                  =   6.2048508928989E-15
(PID.TID 0000.0001) %MON vort_a_sd                    =   1.7554373354141E-04
(PID.TID 0000.0001) %MON vort_p_mean                  =   6.2048432611333E-15
(PID.TID 0000.0001) %MON vort_p_sd                    =   1.7554373354141E-04
(PID.TID 0000.0001) %MON surfExpan_theta_mean         =  -5.0893933110677E+00
(PID.TID 0000.0001) %MON surfExpan_salt_mean          =   0.0000000000000E+00
(PID.TID 0000.0001) %MON surfExpan_Heat_mean          =  -5.1329382055920E+02
(PID.TID 0000.0001) %MON En_Budget_T2PE_mean          =   1.4099764710899E+02
(PID.TID 0000.0001) // =======================================================
(PID.TID 0000.0001) // End MONITOR dynamic field statistics
(PID.TID 0000.0001) // =======================================================
 cg2d: Sum(rhs),rhsMax =  -4.98212582300539E-15  1.49858166126970E+03
(PID.TID 0000.0001)                    cg2d_init_res =    8.91221164836723E-01
(PID.TID 0000.0001)                       cg2d_iters =    17
(PID.TID 0000.0001)                         cg2d_res =    3.35256859892306E-14
(PID.TID 0000.0001) // =======================================================
(PID.TID 0000.0001) // Begin MONITOR dynamic field statistics
(PID.TID 0000.0001) // =======================================================
(PID.TID 0000.0001) %MON time_tsnumber                =                     7
(PID.TID 0000.0001) %MON time_secondsf                =   8.4000000000000E+03
(PID.TID 0000.0001) %MON dynstat_eta_max              =   3.1262777664685E+03
(PID.TID 0000.0001) %MON dynstat_eta_min              =  -2.1561100331700E+03
(PID.TID 0000.0001) %MON dynstat_eta_mean             =  -2.3084598010534E-14
(PID.TID 0000.0001) %MON dynstat_eta_sd               =   1.7201581895665E+03
(PID.TID 0000.0001) %MON dynstat_eta_del2             =   5.1193896261080E+00
(PID.TID 0000.0001) %MON dynstat_uvel_max             =   1.1278497210933E+01
(PID.TID 0000.0001) %MON dynstat_uvel_min             =  -6.3493936785760E-01
(PID.TID 0000.0001) %MON dynstat_uvel_mean            =   3.0654523058221E+00
(PID.TID 0000.0001) %MON dynstat_uvel_sd              =   3.2201772111409E+00
(PID.TID 0000.0001) %MON dynstat_uvel_del2            =   2.6015248650985E-02
(PID.TID 0000.0001) %MON dynstat_vvel_max             =   2.6475554239387E+01
(PID.TID 0000.0001) %MON dynstat_vvel_min             =  -2.6475554624338E+01
(PID.TID 0000.0001) %MON dynstat_vvel_mean            =  -8.3583116452292E-07
(PID.TID 0000.0001) %MON dynstat_vvel_sd              =   1.0265792016020E+01
(PID.TID 0000.0001) %MON dynstat_vvel_del2            =   3.6544133800830E-02
(PID.TID 0000.0001) %MON dynstat_wvel_max             =   5.2921781495401E-01
(PID.TID 0000.0001) %MON dynstat_wvel_min             =  -3.9736250599884E-01
(PID.TID 0000.0001) %MON dynstat_wvel_mean            =   5.8552416418402E-18
(PID.TID 0000.0001) %MON dynstat_wvel_sd              =   2.5652803541379E-01
(PID.TID 0000.0001) %MON dynstat_wvel_del2            =   1.4149624054905E-03
(PID.TID 0000.0001) %MON dynstat_theta_max            =   4.2350902294240E+02
(PID.TID 0000.0001) %MON dynstat_theta_min            =   2.5503752248838E+02
(PID.TID 0000.0001) %MON dynstat_theta_mean           =   3.1901347392416E+02
(PID.TID 0000.0001) %MON dynstat_theta_sd             =   4.5436086067909E+01
(PID.TID 0000.0001) %MON dynstat_theta_del2           =   4.7000357180719E-02
(PID.TID 0000.0001) %MON dynstat_salt_max             =   0.0000000000000E+00
(PID.TID 0000.0001) %MON dynstat_salt_min             =   0.0000000000000E+00
(PID.TID 0000.0001) %MON dynstat_salt_mean            =   0.0000000000000E+00
(PID.TID 0000.0001) %MON dynstat_salt_sd              =   0.0000000000000E+00
(PID.TID 0000.0001) %MON dynstat_salt_del2            =   0.0000000000000E+00
(PID.TID 0000.0001) %MON advcfl_uvel_max              =   4.3179208613609E-06
(PID.TID 0000.0001) %MON advcfl_vvel_max              =   1.0160544487235E-01
(PID.TID 0000.0001) %MON advcfl_wvel_max              =   1.2530402623938E-01
(PID.TID 0000.0001) %MON advcfl_W_hf_max              =   1.2701227558896E-01
(PID.TID 0000.0001) %MON pe_b_mean                    =   1.4794720985663E+01
(PID.TID 0000.0001) %MON ke_max                       =   1.3964166452200E+06
(PID.TID 0000.0001) %MON ke_mean                      =   6.2566923649064E+01
(PID.TID 0000.0001) %MON ke_vol                       =   1.7486817826145E+22
(PID.TID 0000.0001) %MON vort_r_min                   =  -1.5795284750438E-01
(PID.TID 0000.0001) %MON vort_r_max                   =   1.5794869072677E-01
(PID.TID 0000.0001) %MON vort_a_mean                  =   6.4945493111609E-16
(PID.TID 0000.0001) %MON vort_a_sd                    =   2.1895757369449E-04
(PID.TID 0000.0001) %MON vort_p_mean                  =   6.4945240371672E-16
(PID.TID 0000.0001) %MON vort_p_sd                    =   2.1895757369449E-04
(PID.TID 0000.0001) %MON surfExpan_theta_mean         =  -5.3791329953872E+00
(PID.TID 0000.0001) %MON surfExpan_salt_mean          =   0.0000000000000E+00
(PID.TID 0000.0001) %MON surfExpan_Heat_mean          =  -5.4251569052326E+02
(PID.TID 0000.0001) %MON En_Budget_T2PE_mean          =   1.5020528813922E+02
(PID.TID 0000.0001) // =======================================================
(PID.TID 0000.0001) // End MONITOR dynamic field statistics
(PID.TID 0000.0001) // =======================================================
 cg2d: Sum(rhs),rhsMax =   1.59594559789866E-16  1.83164888987740E+03
(PID.TID 0000.0001)                    cg2d_init_res =    7.43136391328543E-01
(PID.TID 0000.0001)                       cg2d_iters =    17
(PID.TID 0000.0001)                         cg2d_res =    1.98896430205038E-14
(PID.TID 0000.0001) // =======================================================
(PID.TID 0000.0001) // Begin MONITOR dynamic field statistics
(PID.TID 0000.0001) // =======================================================
(PID.TID 0000.0001) %MON time_tsnumber                =                     8
(PID.TID 0000.0001) %MON time_secondsf                =   9.6000000000000E+03
(PID.TID 0000.0001) %MON dynstat_eta_max              =   3.7434793570756E+03
(PID.TID 0000.0001) %MON dynstat_eta_min              =  -2.6328837636521E+03
(PID.TID 0000.0001) %MON dynstat_eta_mean             =   1.1472760910224E-14
(PID.TID 0000.0001) %MON dynstat_eta_sd               =   2.0907970181820E+03
(PID.TID 0000.0001) %MON dynstat_eta_del2             =   5.9697926576321E+00
(PID.TID 0000.0001) %MON dynstat_uvel_max             =   1.4117347775117E+01
(PID.TID 0000.0001) %MON dynstat_uvel_min             =  -1.0001353721131E+00
(PID.TID 0000.0001) %MON dynstat_uvel_mean            =   3.8097560048802E+00
(PID.TID 0000.0001) %MON dynstat_uvel_sd              =   4.0811553396024E+00
(PID.TID 0000.0001) %MON dynstat_uvel_del2            =   3.1304337177120E-02
(PID.TID 0000.0001) %MON dynstat_vvel_max             =   2.7915329833996E+01
(PID.TID 0000.0001) %MON dynstat_vvel_min             =  -2.7915330626531E+01
(PID.TID 0000.0001) %MON dynstat_vvel_mean            =  -6.3632341405668E-07
(PID.TID 0000.0001) %MON dynstat_vvel_sd              =   1.0807281130849E+01
(PID.TID 0000.0001) %MON dynstat_vvel_del2            =   3.6946412510312E-02
(PID.TID 0000.0001) %MON dynstat_wvel_max             =   5.2416931457888E-01
(PID.TID 0000.0001) %MON dynstat_wvel_min             =  -4.1270451777701E-01
(PID.TID 0000.0001) %MON dynstat_wvel_mean            =   7.4548819263876E-19
(PID.TID 0000.0001) %MON dynstat_wvel_sd              =   2.6764380545088E-01
(PID.TID 0000.0001) %MON dynstat_wvel_del2            =   1.3819724050643E-03
(PID.TID 0000.0001) %MON dynstat_theta_max            =   4.2420420404298E+02
(PID.TID 0000.0001) %MON dynstat_theta_min            =   2.5503903282265E+02
(PID.TID 0000.0001) %MON dynstat_theta_mean           =   3.1907976940534E+02
(PID.TID 0000.0001) %MON dynstat_theta_sd             =   4.5394600560252E+01
(PID.TID 0000.0001) %MON dynstat_theta_del2           =   4.7163749301108E-02
(PID.TID 0000.0001) %MON dynstat_salt_max             =   0.0000000000000E+00
(PID.TID 0000.0001) %MON dynstat_salt_min             =   0.0000000000000E+00
(PID.TID 0000.0001) %MON dynstat_salt_mean            =   0.0000000000000E+00
(PID.TID 0000.0001) %MON dynstat_salt_sd              =   0.0000000000000E+00
(PID.TID 0000.0001) %MON dynstat_salt_del2            =   0.0000000000000E+00
(PID.TID 0000.0001) %MON advcfl_uvel_max              =   5.4104065720041E-06
(PID.TID 0000.0001) %MON advcfl_vvel_max              =   1.0713088459571E-01
(PID.TID 0000.0001) %MON advcfl_wvel_max              =   1.2344101420447E-01
(PID.TID 0000.0001) %MON advcfl_W_hf_max              =   1.2580063549893E-01
(PID.TID 0000.0001) %MON pe_b_mean                    =   2.1857160856194E+01
(PID.TID 0000.0001) %MON ke_max                       =   2.1877092226258E+06
(PID.TID 0000.0001) %MON ke_mean                      =   7.3973535627661E+01
(PID.TID 0000.0001) %MON ke_vol                       =   1.7486817826145E+22
(PID.TID 0000.0001) %MON vort_r_min                   =  -1.9655182310652E-01
(PID.TID 0000.0001) %MON vort_r_max                   =   1.9654784698572E-01
(PID.TID 0000.0001) %MON vort_a_mean                  =  -4.7262630852889E-15
(PID.TID 0000.0001) %MON vort_a_sd                    =   2.6670438948094E-04
(PID.TID 0000.0001) %MON vort_p_mean                  =  -4.7262686060767E-15
(PID.TID 0000.0001) %MON vort_p_sd                    =   2.6670438948094E-04
(PID.TID 0000.0001) %MON surfExpan_theta_mean         =  -5.4704858597642E+00
(PID.TID 0000.0001) %MON surfExpan_salt_mean          =   0.0000000000000E+00
(PID.TID 0000.0001) %MON surfExpan_Heat_mean          =  -5.5172913855313E+02
(PID.TID 0000.0001) %MON En_Budget_T2PE_mean          =   1.5467271554818E+02
(PID.TID 0000.0001) // =======================================================
(PID.TID 0000.0001) // End MONITOR dynamic field statistics
(PID.TID 0000.0001) // =======================================================
 cg2d: Sum(rhs),rhsMax =   6.10622663543836E-16  2.16161545458411E+03
(PID.TID 0000.0001)                    cg2d_init_res =    6.19717452377705E-01
(PID.TID 0000.0001)                       cg2d_iters =    17
(PID.TID 0000.0001)                         cg2d_res =    1.77758377219128E-14
(PID.TID 0000.0001) // =======================================================
(PID.TID 0000.0001) // Begin MONITOR dynamic field statistics
(PID.TID 0000.0001) // =======================================================
(PID.TID 0000.0001) %MON time_tsnumber                =                     9
(PID.TID 0000.0001) %MON time_secondsf                =   1.0800000000000E+04
(PID.TID 0000.0001) %MON dynstat_eta_max              =   4.3298343077026E+03
(PID.TID 0000.0001) %MON dynstat_eta_min              =  -3.1044711505875E+03
(PID.TID 0000.0001) %MON dynstat_eta_mean             =  -1.8637380639531E-14
(PID.TID 0000.0001) %MON dynstat_eta_sd               =   2.4550952753388E+03
(PID.TID 0000.0001) %MON dynstat_eta_del2             =   6.8144281934101E+00
(PID.TID 0000.0001) %MON dynstat_uvel_max             =   1.7045337328415E+01
(PID.TID 0000.0001) %MON dynstat_uvel_min             =  -1.4793090106792E+00
(PID.TID 0000.0001) %MON dynstat_uvel_mean            =   4.5533568070431E+00
(PID.TID 0000.0001) %MON dynstat_uvel_sd              =   4.9855344474373E+00
(PID.TID 0000.0001) %MON dynstat_uvel_del2            =   3.6655816728965E-02
(PID.TID 0000.0001) %MON dynstat_vvel_max             =   2.8780894232180E+01
(PID.TID 0000.0001) %MON dynstat_vvel_min             =  -2.8780895169574E+01
(PID.TID 0000.0001) %MON dynstat_vvel_mean            =  -4.4412913552340E-07
(PID.TID 0000.0001) %MON dynstat_vvel_sd              =   1.1089992079950E+01
(PID.TID 0000.0001) %MON dynstat_vvel_del2            =   3.7449908163679E-02
(PID.TID 0000.0001) %MON dynstat_wvel_max             =   5.0136018095969E-01
(PID.TID 0000.0001) %MON dynstat_wvel_min             =  -4.2656620948214E-01
(PID.TID 0000.0001) %MON dynstat_wvel_mean            =  -8.3408388638702E-20
(PID.TID 0000.0001) %MON dynstat_wvel_sd              =   2.7148173845202E-01
(PID.TID 0000.0001) %MON dynstat_wvel_del2            =   1.3677541968325E-03
(PID.TID 0000.0001) %MON dynstat_theta_max            =   4.2484926064054E+02
(PID.TID 0000.0001) %MON dynstat_theta_min            =   2.5504100024181E+02
(PID.TID 0000.0001) %MON dynstat_theta_mean           =   3.1914334655657E+02
(PID.TID 0000.0001) %MON dynstat_theta_sd             =   4.5354647752337E+01
(PID.TID 0000.0001) %MON dynstat_theta_del2           =   4.7210108118459E-02
(PID.TID 0000.0001) %MON dynstat_salt_max             =   0.0000000000000E+00
(PID.TID 0000.0001) %MON dynstat_salt_min             =   0.0000000000000E+00
(PID.TID 0000.0001) %MON dynstat_salt_mean            =   0.0000000000000E+00
(PID.TID 0000.0001) %MON dynstat_salt_sd              =   0.0000000000000E+00
(PID.TID 0000.0001) %MON dynstat_salt_del2            =   0.0000000000000E+00
(PID.TID 0000.0001) %MON advcfl_uvel_max              =   6.5150793786694E-06
(PID.TID 0000.0001) %MON advcfl_vvel_max              =   1.1045266847180E-01
(PID.TID 0000.0001) %MON advcfl_wvel_max              =   1.1781822382362E-01
(PID.TID 0000.0001) %MON advcfl_W_hf_max              =   1.2032644343032E-01
(PID.TID 0000.0001) %MON pe_b_mean                    =   3.0137464054954E+01
(PID.TID 0000.0001) %MON ke_max                       =   3.1891516695064E+06
(PID.TID 0000.0001) %MON ke_mean                      =   8.4278208481199E+01
(PID.TID 0000.0001) %MON ke_vol                       =   1.7486817826145E+22
(PID.TID 0000.0001) %MON vort_r_min                   =  -2.3511885680470E-01
(PID.TID 0000.0001) %MON vort_r_max                   =   2.3511511318090E-01
(PID.TID 0000.0001) %MON vort_a_mean                  =  -1.0038779296389E-14
(PID.TID 0000.0001) %MON vort_a_sd                    =   3.1686526114046E-04
(PID.TID 0000.0001) %MON vort_p_mean                  =  -1.0038768431644E-14
(PID.TID 0000.0001) %MON vort_p_sd                    =   3.1686526114046E-04
(PID.TID 0000.0001) %MON surfExpan_theta_mean         =  -5.3642601538323E+00
(PID.TID 0000.0001) %MON surfExpan_salt_mean          =   0.0000000000000E+00
(PID.TID 0000.0001) %MON surfExpan_Heat_mean          =  -5.4101568115129E+02
(PID.TID 0000.0001) %MON En_Budget_T2PE_mean          =   1.5456345868269E+02
(PID.TID 0000.0001) // =======================================================
(PID.TID 0000.0001) // End MONITOR dynamic field statistics
(PID.TID 0000.0001) // =======================================================
 cg2d: Sum(rhs),rhsMax =  -1.67921232474555E-15  2.47650463793198E+03
(PID.TID 0000.0001)                    cg2d_init_res =    5.13984311444681E-01
(PID.TID 0000.0001)                       cg2d_iters =    17
(PID.TID 0000.0001)                         cg2d_res =    1.79139354527593E-14
(PID.TID 0000.0001) // =======================================================
(PID.TID 0000.0001) // Begin MONITOR dynamic field statistics
(PID.TID 0000.0001) // =======================================================
(PID.TID 0000.0001) %MON time_tsnumber                =                    10
(PID.TID 0000.0001) %MON time_secondsf                =   1.2000000000000E+04
(PID.TID 0000.0001) %MON dynstat_eta_max              =   4.8674797442194E+03
(PID.TID 0000.0001) %MON dynstat_eta_min              =  -3.5540859490691E+03
(PID.TID 0000.0001) %MON dynstat_eta_mean             =  -1.4362178556266E-13
(PID.TID 0000.0001) %MON dynstat_eta_sd               =   2.8002961794602E+03
(PID.TID 0000.0001) %MON dynstat_eta_del2             =   7.6443051608358E+00
(PID.TID 0000.0001) %MON dynstat_uvel_max             =   1.9991772767661E+01
(PID.TID 0000.0001) %MON dynstat_uvel_min             =  -2.0855474163525E+00
(PID.TID 0000.0001) %MON dynstat_uvel_mean            =   5.2695872468387E+00
(PID.TID 0000.0001) %MON dynstat_uvel_sd              =   5.9121514524483E+00
(PID.TID 0000.0001) %MON dynstat_uvel_del2            =   4.1814043067308E-02
(PID.TID 0000.0001) %MON dynstat_vvel_max             =   2.9178771848152E+01
(PID.TID 0000.0001) %MON dynstat_vvel_min             =  -2.9178773420067E+01
(PID.TID 0000.0001) %MON dynstat_vvel_mean            =  -2.6630517703178E-07
(PID.TID 0000.0001) %MON dynstat_vvel_sd              =   1.1134788544059E+01
(PID.TID 0000.0001) %MON dynstat_vvel_del2            =   3.8286156690890E-02
(PID.TID 0000.0001) %MON dynstat_wvel_max             =   4.7179215239367E-01
(PID.TID 0000.0001) %MON dynstat_wvel_min             =  -4.3072887068989E-01
(PID.TID 0000.0001) %MON dynstat_wvel_mean            =  -1.2283577138576E-18
(PID.TID 0000.0001) %MON dynstat_wvel_sd              =   2.6838409222105E-01
(PID.TID 0000.0001) %MON dynstat_wvel_del2            =   1.3995507959217E-03
(PID.TID 0000.0001) %MON dynstat_theta_max            =   4.2545066046778E+02
(PID.TID 0000.0001) %MON dynstat_theta_min            =   2.5504330447465E+02
(PID.TID 0000.0001) %MON dynstat_theta_mean           =   3.1920198051389E+02
(PID.TID 0000.0001) %MON dynstat_theta_sd             =   4.5317702545020E+01
(PID.TID 0000.0001) %MON dynstat_theta_del2           =   4.6966628602754E-02
(PID.TID 0000.0001) %MON dynstat_salt_max             =   0.0000000000000E+00
(PID.TID 0000.0001) %MON dynstat_salt_min             =   0.0000000000000E+00
(PID.TID 0000.0001) %MON dynstat_salt_mean            =   0.0000000000000E+00
(PID.TID 0000.0001) %MON dynstat_salt_sd              =   0.0000000000000E+00
(PID.TID 0000.0001) %MON dynstat_salt_del2            =   0.0000000000000E+00
(PID.TID 0000.0001) %MON advcfl_uvel_max              =   7.5937620807690E-06
(PID.TID 0000.0001) %MON advcfl_vvel_max              =   1.1197960897295E-01
(PID.TID 0000.0001) %MON advcfl_wvel_max              =   1.1035742024380E-01
(PID.TID 0000.0001) %MON advcfl_W_hf_max              =   1.1323011657448E-01
(PID.TID 0000.0001) %MON pe_b_mean                    =   3.9208293463498E+01
(PID.TID 0000.0001) %MON ke_max                       =   4.3868533094123E+06
(PID.TID 0000.0001) %MON ke_mean                      =   9.3343500770265E+01
(PID.TID 0000.0001) %MON ke_vol                       =   1.7486817826145E+22
(PID.TID 0000.0001) %MON vort_r_min                   =  -2.7230217726200E-01
(PID.TID 0000.0001) %MON vort_r_max                   =   2.7229870313275E-01
(PID.TID 0000.0001) %MON vort_a_mean                  =  -1.5243850843987E-14
(PID.TID 0000.0001) %MON vort_a_sd                    =   3.6770382009717E-04
(PID.TID 0000.0001) %MON vort_p_mean                  =  -1.5243860256826E-14
(PID.TID 0000.0001) %MON vort_p_sd                    =   3.6770382009717E-04
(PID.TID 0000.0001) %MON surfExpan_theta_mean         =  -5.0681790198803E+00
(PID.TID 0000.0001) %MON surfExpan_salt_mean          =   0.0000000000000E+00
(PID.TID 0000.0001) %MON surfExpan_Heat_mean          =  -5.1115424047402E+02
(PID.TID 0000.0001) %MON En_Budget_T2PE_mean          =   1.5018886925477E+02
(PID.TID 0000.0001) // =======================================================
(PID.TID 0000.0001) // End MONITOR dynamic field statistics
(PID.TID 0000.0001) // =======================================================
objf_test       314.8    1   31    1 TILE     1   31    1    1
objf_test       629.6    2   31    1 TILE     2   31    1    1
objf_test       944.7    1   32    1 TILE     1   32    1    1
objf_test      1259.8    2   32    1 TILE     2   32    1    1
objf_test      1574.9    1   33    1 TILE     1   33    1    1
objf_test      1890.0    2   33    1 TILE     2   33    1    1
objf_test      2204.8    1   34    1 TILE     1   34    1    1
objf_test      2519.6    2   34    1 TILE     2   34    1    1
objf_test      2833.8    1   35    1 TILE     1   35    1    1
objf_test      3148.0    2   35    1 TILE     2   35    1    1
objf_test      3461.4    1   36    1 TILE     1   36    1    1
objf_test      3774.8    2   36    1 TILE     2   36    1    1
objf_test      4087.0    1   37    1 TILE     1   37    1    1
objf_test      4399.2    2   37    1 TILE     2   37    1    1
objf_test      4710.1    1   38    1 TILE     1   38    1    1
objf_test      5020.9    2   38    1 TILE     2   38    1    1
objf_test      5330.1    1   39    1 TILE     1   39    1    1
objf_test      5639.3    2   39    1 TILE     2   39    1    1
  --> objf_test(bi,bj)   =  626.587786
  --> objf_tracer(bi,bj) =  0.
  --> objf_atl(bi,bj)    =  0.
  local fc =   626.587786
  global fc =   626.587786
(PID.TID 0000.0001)  MDSREADFIELD: opening file: xx_theta.0000000000.001.001.data
 grad-res -------------------------------
 grad-res     0    3    1    2    1   0.626587786E+03 0.626587786E+03 0.626587786E+03
 grad-res     0    3    3    3    0   0.486580779E-07 0.486579665E-07 0.228812454E-05
(PID.TID 0000.0001)       precision_grdchk_result TLM     6.26587786180309E+02     4.86580778805937E-08
 ph-grd  ierr ---------------------------
 ph-grd  ierr =  0, icomp =  3, ichknum =  3
(PID.TID 0000.0001)  MDSREADFIELD: opening file: g_xx_theta.0000000000.001.001.data
(PID.TID 0000.0001)  MDSREADFIELD: opening file: g_xx_theta.0000000000.001.001.data
(PID.TID 0000.0001) %MON En_BudgetfCori_max           =   1.4540029928789E-04
(PID.TID 0000.0001) %MON En_BudgetfCori_min           =  -1.4540029928789E-04
(PID.TID 0000.0001) %MON En_BudgetfCori_mean          =   0.0000000000000E+00
(PID.TID 0000.0001) %MON En_BudgetfCori_sd            =   1.0284451245737E-04
(PID.TID 0000.0001) %MON En_BudgetfCoriG_max          =   1.4526891053949E-04
(PID.TID 0000.0001) %MON En_BudgetfCoriG_min          =  -1.4544410433286E-04
(PID.TID 0000.0001) %MON En_BudgetfCoriG_mean         =  -2.3086365767121E-06
(PID.TID 0000.0001) %MON En_BudgetfCoriG_sd           =   1.0363181330709E-04
(PID.TID 0000.0001) %MON En_BudgetfCoriCos_max        =   1.4540029928789E-04
(PID.TID 0000.0001) %MON En_BudgetfCoriCos_min        =   3.5693770017430E-06
(PID.TID 0000.0001) %MON En_BudgetfCoriCos_mean       =   9.2601889431869E-05
(PID.TID 0000.0001) %MON En_BudgetfCoriCos_sd         =   4.4742416298653E-05
(PID.TID 0000.0001) // CG2D normalisation factor =          0.2278126663032464164969763E-09
(PID.TID 0000.0001) 
(PID.TID 0000.0001) // =======================================================
(PID.TID 0000.0001) // Field Initial Temperature at iteration          1
(PID.TID 0000.0001) // CMIN =          2.550364452389422E+02
(PID.TID 0000.0001) // CMAX =          3.154764877049333E+02
(PID.TID 0000.0001) // CINT =          2.238520091333006E+00
(PID.TID 0000.0001) // SYMBOLS (CMIN->CMAX): -abcdefghijklmnopqrstuvwxyz+
(PID.TID 0000.0001) //                  0.0: .
(PID.TID 0000.0001) // RANGE I (Lo:Hi:Step):(   1:   2:   1)
(PID.TID 0000.0001) // RANGE J (Lo:Hi:Step):(  64:   1:  -1)
(PID.TID 0000.0001) // RANGE K (Lo:Hi:Step):(   1:   1:   1)
(PID.TID 0000.0001) // =======================================================
(PID.TID 0000.0001) K =   1
(PID.TID 0000.0001) 
(PID.TID 0000.0001) |--J--|12
(PID.TID 0000.0001)     64 --
(PID.TID 0000.0001)     63 --
(PID.TID 0000.0001)     62 --
(PID.TID 0000.0001)     61 aa
(PID.TID 0000.0001)     60 aa
(PID.TID 0000.0001)     59 bb
(PID.TID 0000.0001)     58 cc
(PID.TID 0000.0001)     57 cc
(PID.TID 0000.0001)     56 dd
(PID.TID 0000.0001)     55 ee
(PID.TID 0000.0001)     54 gg
(PID.TID 0000.0001)     53 hh
(PID.TID 0000.0001)     52 ii
(PID.TID 0000.0001)     51 jj
(PID.TID 0000.0001)     50 ll
(PID.TID 0000.0001)     49 mm
(PID.TID 0000.0001)     48 nn
(PID.TID 0000.0001)     47 oo
(PID.TID 0000.0001)     46 qq
(PID.TID 0000.0001)     45 rr
(PID.TID 0000.0001)     44 ss
(PID.TID 0000.0001)     43 tt
(PID.TID 0000.0001)     42 vv
(PID.TID 0000.0001)     41 ww
(PID.TID 0000.0001)     40 xx
(PID.TID 0000.0001)     39 xx
(PID.TID 0000.0001)     38 yy
(PID.TID 0000.0001)     37 zz
(PID.TID 0000.0001)     36 zz
(PID.TID 0000.0001)     35 ++
(PID.TID 0000.0001)     34 ++
(PID.TID 0000.0001)     33 ++
(PID.TID 0000.0001)     32 ++
(PID.TID 0000.0001)     31 ++
(PID.TID 0000.0001)     30 ++
(PID.TID 0000.0001)     29 zz
(PID.TID 0000.0001)     28 zz
(PID.TID 0000.0001)     27 yy
(PID.TID 0000.0001)     26 xx
(PID.TID 0000.0001)     25 xx
(PID.TID 0000.0001)     24 ww
(PID.TID 0000.0001)     23 vv
(PID.TID 0000.0001)     22 tt
(PID.TID 0000.0001)     21 ss
(PID.TID 0000.0001)     20 rr
(PID.TID 0000.0001)     19 qq
(PID.TID 0000.0001)     18 oo
(PID.TID 0000.0001)     17 nn
(PID.TID 0000.0001)     16 mm
(PID.TID 0000.0001)     15 ll
(PID.TID 0000.0001)     14 jj
(PID.TID 0000.0001)     13 ii
(PID.TID 0000.0001)     12 hh
(PID.TID 0000.0001)     11 gg
(PID.TID 0000.0001)     10 ee
(PID.TID 0000.0001)      9 dd
(PID.TID 0000.0001)      8 cc
(PID.TID 0000.0001)      7 cc
(PID.TID 0000.0001)      6 bb
(PID.TID 0000.0001)      5 aa
(PID.TID 0000.0001)      4 aa
(PID.TID 0000.0001)      3 --
(PID.TID 0000.0001)      2 --
(PID.TID 0000.0001)      1 --
(PID.TID 0000.0001) // =======================================================
(PID.TID 0000.0001) // END OF FIELD                                          =
(PID.TID 0000.0001) // =======================================================
(PID.TID 0000.0001) 
(PID.TID 0000.0001) // =======================================================
(PID.TID 0000.0001) // Field Initial Salinity at iteration          1
(PID.TID 0000.0001) // CMIN =          1.000000000000000E+32
(PID.TID 0000.0001) // CMAX =         -1.000000000000000E+32
(PID.TID 0000.0001) // CINT =          0.000000000000000E+00
(PID.TID 0000.0001) // SYMBOLS (CMIN->CMAX): -abcdefghijklmnopqrstuvwxyz+
(PID.TID 0000.0001) //                  0.0: .
(PID.TID 0000.0001) // RANGE I (Lo:Hi:Step):(   1:   2:   1)
(PID.TID 0000.0001) // RANGE J (Lo:Hi:Step):(  64:   1:  -1)
(PID.TID 0000.0001) // RANGE K (Lo:Hi:Step):(   1:   1:   1)
(PID.TID 0000.0001) // =======================================================
(PID.TID 0000.0001) // =======================================================
(PID.TID 0000.0001) // END OF FIELD                                          =
(PID.TID 0000.0001) // =======================================================
(PID.TID 0000.0001) 
(PID.TID 0000.0001) Start initial hydrostatic pressure computation
(PID.TID 0000.0001) Pressure is predetermined for buoyancyRelation ATMOSPHERIC
(PID.TID 0000.0001) 
(PID.TID 0000.0001)  MDSREADFIELD: opening file: xx_theta.0000000000.001.001.data
(PID.TID 0000.0001)  MDSREADFIELD: opening file: g_xx_theta.0000000000.001.001.data
(PID.TID 0000.0001)  MDSREADFIELD: opening file: xx_salt.0000000000.001.001.data
(PID.TID 0000.0001)  MDSREADFIELD: opening file: g_xx_salt.0000000000.001.001.data
(PID.TID 0000.0001)  MDSREADFIELD: opening file: xx_diffkr.0000000000.001.001.data
(PID.TID 0000.0001)  MDSREADFIELD: opening file: g_xx_diffkr.0000000000.001.001.data
(PID.TID 0000.0001) // =======================================================
(PID.TID 0000.0001) // Model current state
(PID.TID 0000.0001) // =======================================================
(PID.TID 0000.0001) 
 cg2d: Sum(rhs),rhsMax =  -3.55618312575245E-16  1.69084505097336E+00
 cg2d: Sum(rhs),rhsMax =  -2.08166817117217E-15  8.97359314695382E+01
 cg2d: Sum(rhs),rhsMax =  -3.33724666920406E-14  2.11989658516450E+00
 cg2d: Sum(rhs),rhsMax =   2.56739074444567E-16  1.89073450912132E+02
 cg2d: Sum(rhs),rhsMax =  -1.75318229712962E-13  1.79314959577842E+00
 cg2d: Sum(rhs),rhsMax =   2.22044604925031E-15  3.69983935898362E+02
 cg2d: Sum(rhs),rhsMax =  -2.76267907465578E-13  1.30127353009227E+00
 cg2d: Sum(rhs),rhsMax =   1.99146255042137E-15  6.00188020663841E+02
 cg2d: Sum(rhs),rhsMax =  -4.29845492740521E-13  1.15655075874221E+00
 cg2d: Sum(rhs),rhsMax =   3.64985819345520E-15  8.71578060598605E+02
 cg2d: Sum(rhs),rhsMax =  -5.48725937691472E-13  1.08688856648730E+00
 cg2d: Sum(rhs),rhsMax =   9.29811783123569E-16  1.17463757356037E+03
 cg2d: Sum(rhs),rhsMax =  -6.67660684570368E-13  9.83451145284661E-01
 cg2d: Sum(rhs),rhsMax =   1.86656246015104E-15  1.49858166121228E+03
 cg2d: Sum(rhs),rhsMax =  -7.62772013636844E-13  8.79191562256867E-01
 cg2d: Sum(rhs),rhsMax =   2.18575157973078E-15  1.83164888966199E+03
 cg2d: Sum(rhs),rhsMax =  -8.01308165876987E-13  7.88111596370453E-01
 cg2d: Sum(rhs),rhsMax =   2.62290189567693E-15  2.16161545389010E+03
 cg2d: Sum(rhs),rhsMax =  -8.31528351501457E-13  7.11485090497722E-01
 cg2d: Sum(rhs),rhsMax =   3.72618602639818E-15  2.47650463597214E+03
(PID.TID 0000.0001)  MDSREADFIELD: opening file: g_xx_theta.0000000000.001.001.data
(PID.TID 0000.0001)  MDSREADFIELD: opening file: xx_theta.0000000000.001.001.data
(PID.TID 0000.0001) %MON En_BudgetfCori_max           =   1.4540029928789E-04
(PID.TID 0000.0001) %MON En_BudgetfCori_min           =  -1.4540029928789E-04
(PID.TID 0000.0001) %MON En_BudgetfCori_mean          =   0.0000000000000E+00
(PID.TID 0000.0001) %MON En_BudgetfCori_sd            =   1.0284451245737E-04
(PID.TID 0000.0001) %MON En_BudgetfCoriG_max          =   1.4526891053949E-04
(PID.TID 0000.0001) %MON En_BudgetfCoriG_min          =  -1.4544410433286E-04
(PID.TID 0000.0001) %MON En_BudgetfCoriG_mean         =  -2.3086365767121E-06
(PID.TID 0000.0001) %MON En_BudgetfCoriG_sd           =   1.0363181330709E-04
(PID.TID 0000.0001) %MON En_BudgetfCoriCos_max        =   1.4540029928789E-04
(PID.TID 0000.0001) %MON En_BudgetfCoriCos_min        =   3.5693770017430E-06
(PID.TID 0000.0001) %MON En_BudgetfCoriCos_mean       =   9.2601889431869E-05
(PID.TID 0000.0001) %MON En_BudgetfCoriCos_sd         =   4.4742416298653E-05
(PID.TID 0000.0001) // CG2D normalisation factor =          0.2278126663032464164969763E-09
(PID.TID 0000.0001) 
(PID.TID 0000.0001) // =======================================================
(PID.TID 0000.0001) // Field Initial Temperature at iteration          1
(PID.TID 0000.0001) // CMIN =          2.550364452389422E+02
(PID.TID 0000.0001) // CMAX =          3.154764877049333E+02
(PID.TID 0000.0001) // CINT =          2.238520091333006E+00
(PID.TID 0000.0001) // SYMBOLS (CMIN->CMAX): -abcdefghijklmnopqrstuvwxyz+
(PID.TID 0000.0001) //                  0.0: .
(PID.TID 0000.0001) // RANGE I (Lo:Hi:Step):(   1:   2:   1)
(PID.TID 0000.0001) // RANGE J (Lo:Hi:Step):(  64:   1:  -1)
(PID.TID 0000.0001) // RANGE K (Lo:Hi:Step):(   1:   1:   1)
(PID.TID 0000.0001) // =======================================================
(PID.TID 0000.0001) K =   1
(PID.TID 0000.0001) 
(PID.TID 0000.0001) |--J--|12
(PID.TID 0000.0001)     64 --
(PID.TID 0000.0001)     63 --
(PID.TID 0000.0001)     62 --
(PID.TID 0000.0001)     61 aa
(PID.TID 0000.0001)     60 aa
(PID.TID 0000.0001)     59 bb
(PID.TID 0000.0001)     58 cc
(PID.TID 0000.0001)     57 cc
(PID.TID 0000.0001)     56 dd
(PID.TID 0000.0001)     55 ee
(PID.TID 0000.0001)     54 gg
(PID.TID 0000.0001)     53 hh
(PID.TID 0000.0001)     52 ii
(PID.TID 0000.0001)     51 jj
(PID.TID 0000.0001)     50 ll
(PID.TID 0000.0001)     49 mm
(PID.TID 0000.0001)     48 nn
(PID.TID 0000.0001)     47 oo
(PID.TID 0000.0001)     46 qq
(PID.TID 0000.0001)     45 rr
(PID.TID 0000.0001)     44 ss
(PID.TID 0000.0001)     43 tt
(PID.TID 0000.0001)     42 vv
(PID.TID 0000.0001)     41 ww
(PID.TID 0000.0001)     40 xx
(PID.TID 0000.0001)     39 xx
(PID.TID 0000.0001)     38 yy
(PID.TID 0000.0001)     37 zz
(PID.TID 0000.0001)     36 zz
(PID.TID 0000.0001)     35 ++
(PID.TID 0000.0001)     34 ++
(PID.TID 0000.0001)     33 ++
(PID.TID 0000.0001)     32 ++
(PID.TID 0000.0001)     31 ++
(PID.TID 0000.0001)     30 ++
(PID.TID 0000.0001)     29 zz
(PID.TID 0000.0001)     28 zz
(PID.TID 0000.0001)     27 yy
(PID.TID 0000.0001)     26 xx
(PID.TID 0000.0001)     25 xx
(PID.TID 0000.0001)     24 ww
(PID.TID 0000.0001)     23 vv
(PID.TID 0000.0001)     22 tt
(PID.TID 0000.0001)     21 ss
(PID.TID 0000.0001)     20 rr
(PID.TID 0000.0001)     19 qq
(PID.TID 0000.0001)     18 oo
(PID.TID 0000.0001)     17 nn
(PID.TID 0000.0001)     16 mm
(PID.TID 0000.0001)     15 ll
(PID.TID 0000.0001)     14 jj
(PID.TID 0000.0001)     13 ii
(PID.TID 0000.0001)     12 hh
(PID.TID 0000.0001)     11 gg
(PID.TID 0000.0001)     10 ee
(PID.TID 0000.0001)      9 dd
(PID.TID 0000.0001)      8 cc
(PID.TID 0000.0001)      7 cc
(PID.TID 0000.0001)      6 bb
(PID.TID 0000.0001)      5 aa
(PID.TID 0000.0001)      4 aa
(PID.TID 0000.0001)      3 --
(PID.TID 0000.0001)      2 --
(PID.TID 0000.0001)      1 --
(PID.TID 0000.0001) // =======================================================
(PID.TID 0000.0001) // END OF FIELD                                          =
(PID.TID 0000.0001) // =======================================================
(PID.TID 0000.0001) 
(PID.TID 0000.0001) // =======================================================
(PID.TID 0000.0001) // Field Initial Salinity at iteration          1
(PID.TID 0000.0001) // CMIN =          1.000000000000000E+32
(PID.TID 0000.0001) // CMAX =         -1.000000000000000E+32
(PID.TID 0000.0001) // CINT =          0.000000000000000E+00
(PID.TID 0000.0001) // SYMBOLS (CMIN->CMAX): -abcdefghijklmnopqrstuvwxyz+
(PID.TID 0000.0001) //                  0.0: .
(PID.TID 0000.0001) // RANGE I (Lo:Hi:Step):(   1:   2:   1)
(PID.TID 0000.0001) // RANGE J (Lo:Hi:Step):(  64:   1:  -1)
(PID.TID 0000.0001) // RANGE K (Lo:Hi:Step):(   1:   1:   1)
(PID.TID 0000.0001) // =======================================================
(PID.TID 0000.0001) // =======================================================
(PID.TID 0000.0001) // END OF FIELD                                          =
(PID.TID 0000.0001) // =======================================================
(PID.TID 0000.0001) 
(PID.TID 0000.0001) Start initial hydrostatic pressure computation
(PID.TID 0000.0001) Pressure is predetermined for buoyancyRelation ATMOSPHERIC
(PID.TID 0000.0001) 
(PID.TID 0000.0001)  MDSREADFIELD: opening file: xx_theta.0000000000.001.001.data
(PID.TID 0000.0001)  MDSREADFIELD: opening file: xx_salt.0000000000.001.001.data
(PID.TID 0000.0001)  MDSREADFIELD: opening file: xx_diffkr.0000000000.001.001.data
(PID.TID 0000.0001) // =======================================================
(PID.TID 0000.0001) // Model current state
(PID.TID 0000.0001) // =======================================================
(PID.TID 0000.0001) 
(PID.TID 0000.0001) // =======================================================
(PID.TID 0000.0001) // Begin MONITOR dynamic field statistics
(PID.TID 0000.0001) // =======================================================
(PID.TID 0000.0001) %MON time_tsnumber                =                     0
(PID.TID 0000.0001) %MON time_secondsf                =   0.0000000000000E+00
(PID.TID 0000.0001) %MON dynstat_eta_max              =   0.0000000000000E+00
(PID.TID 0000.0001) %MON dynstat_eta_min              =   0.0000000000000E+00
(PID.TID 0000.0001) %MON dynstat_eta_mean             =   0.0000000000000E+00
(PID.TID 0000.0001) %MON dynstat_eta_sd               =   0.0000000000000E+00
(PID.TID 0000.0001) %MON dynstat_eta_del2             =   0.0000000000000E+00
(PID.TID 0000.0001) %MON dynstat_uvel_max             =   0.0000000000000E+00
(PID.TID 0000.0001) %MON dynstat_uvel_min             =   0.0000000000000E+00
(PID.TID 0000.0001) %MON dynstat_uvel_mean            =   0.0000000000000E+00
(PID.TID 0000.0001) %MON dynstat_uvel_sd              =   0.0000000000000E+00
(PID.TID 0000.0001) %MON dynstat_uvel_del2            =   0.0000000000000E+00
(PID.TID 0000.0001) %MON dynstat_vvel_max             =   0.0000000000000E+00
(PID.TID 0000.0001) %MON dynstat_vvel_min             =   0.0000000000000E+00
(PID.TID 0000.0001) %MON dynstat_vvel_mean            =   0.0000000000000E+00
(PID.TID 0000.0001) %MON dynstat_vvel_sd              =   0.0000000000000E+00
(PID.TID 0000.0001) %MON dynstat_vvel_del2            =   0.0000000000000E+00
(PID.TID 0000.0001) %MON dynstat_wvel_max             =   0.0000000000000E+00
(PID.TID 0000.0001) %MON dynstat_wvel_min             =   0.0000000000000E+00
(PID.TID 0000.0001) %MON dynstat_wvel_mean            =   0.0000000000000E+00
(PID.TID 0000.0001) %MON dynstat_wvel_sd              =   0.0000000000000E+00
(PID.TID 0000.0001) %MON dynstat_wvel_del2            =   0.0000000000000E+00
(PID.TID 0000.0001) %MON dynstat_theta_max            =   4.1921910192279E+02
(PID.TID 0000.0001) %MON dynstat_theta_min            =   2.5503644523894E+02
(PID.TID 0000.0001) %MON dynstat_theta_mean           =   3.1867742819580E+02
(PID.TID 0000.0001) %MON dynstat_theta_sd             =   4.5642504638951E+01
(PID.TID 0000.0001) %MON dynstat_theta_del2           =   4.0241168714763E-02
(PID.TID 0000.0001) %MON dynstat_salt_max             =   0.0000000000000E+00
(PID.TID 0000.0001) %MON dynstat_salt_min             =   0.0000000000000E+00
(PID.TID 0000.0001) %MON dynstat_salt_mean            =   0.0000000000000E+00
(PID.TID 0000.0001) %MON dynstat_salt_sd              =   0.0000000000000E+00
(PID.TID 0000.0001) %MON dynstat_salt_del2            =   0.0000000000000E+00
(PID.TID 0000.0001) %MON advcfl_uvel_max              =   0.0000000000000E+00
(PID.TID 0000.0001) %MON advcfl_vvel_max              =   0.0000000000000E+00
(PID.TID 0000.0001) %MON advcfl_wvel_max              =   0.0000000000000E+00
(PID.TID 0000.0001) %MON advcfl_W_hf_max              =   0.0000000000000E+00
(PID.TID 0000.0001) %MON pe_b_mean                    =   0.0000000000000E+00
(PID.TID 0000.0001) %MON ke_max                       =   0.0000000000000E+00
(PID.TID 0000.0001) %MON ke_mean                      =   0.0000000000000E+00
(PID.TID 0000.0001) %MON ke_vol                       =   1.7486817826145E+22
(PID.TID 0000.0001) %MON vort_r_min                   =   0.0000000000000E+00
(PID.TID 0000.0001) %MON vort_r_max                   =   0.0000000000000E+00
(PID.TID 0000.0001) %MON vort_a_mean                  =  -2.9209451854128E-21
(PID.TID 0000.0001) %MON vort_a_sd                    =   8.3955319514376E-05
(PID.TID 0000.0001) %MON vort_p_mean                  =   4.8186785874352E-22
(PID.TID 0000.0001) %MON vort_p_sd                    =   8.3955319514376E-05
(PID.TID 0000.0001) %MON surfExpan_theta_mean         =   0.0000000000000E+00
(PID.TID 0000.0001) %MON surfExpan_salt_mean          =   0.0000000000000E+00
(PID.TID 0000.0001) %MON surfExpan_Heat_mean          =   0.0000000000000E+00
(PID.TID 0000.0001) %MON En_Budget_T2PE_mean          =   0.0000000000000E+00
(PID.TID 0000.0001) // =======================================================
(PID.TID 0000.0001) // End MONITOR dynamic field statistics
(PID.TID 0000.0001) // =======================================================
 cg2d: Sum(rhs),rhsMax =  -2.08166817117217E-15  8.97359314695382E+01
(PID.TID 0000.0001)                    cg2d_init_res =    3.34522067997115E+00
(PID.TID 0000.0001)                       cg2d_iters =    19
(PID.TID 0000.0001)                         cg2d_res =    4.03486753620105E-14
(PID.TID 0000.0001) // =======================================================
(PID.TID 0000.0001) // Begin MONITOR dynamic field statistics
(PID.TID 0000.0001) // =======================================================
(PID.TID 0000.0001) %MON time_tsnumber                =                     1
(PID.TID 0000.0001) %MON time_secondsf                =   1.2000000000000E+03
(PID.TID 0000.0001) %MON dynstat_eta_max              =   1.4339547752309E+02
(PID.TID 0000.0001) %MON dynstat_eta_min              =  -9.2440656691673E+01
(PID.TID 0000.0001) %MON dynstat_eta_mean             =  -3.5665448465273E-15
(PID.TID 0000.0001) %MON dynstat_eta_sd               =   7.6540712603196E+01
(PID.TID 0000.0001) %MON dynstat_eta_del2             =   1.0992342486484E+00
(PID.TID 0000.0001) %MON dynstat_uvel_max             =   5.8198332770380E-16
(PID.TID 0000.0001) %MON dynstat_uvel_min             =  -5.8198332770380E-16
(PID.TID 0000.0001) %MON dynstat_uvel_mean            =   0.0000000000000E+00
(PID.TID 0000.0001) %MON dynstat_uvel_sd              =   2.0512326908700E-17
(PID.TID 0000.0001) %MON dynstat_uvel_del2            =   3.1105636223731E-17
(PID.TID 0000.0001) %MON dynstat_vvel_max             =   5.2726881150810E+00
(PID.TID 0000.0001) %MON dynstat_vvel_min             =  -5.2726881150130E+00
(PID.TID 0000.0001) %MON dynstat_vvel_mean            =   8.2600361782275E-07
(PID.TID 0000.0001) %MON dynstat_vvel_sd              =   1.9374161736563E+00
(PID.TID 0000.0001) %MON dynstat_vvel_del2            =   1.5137167264172E-02
(PID.TID 0000.0001) %MON dynstat_wvel_max             =   1.1949623126917E-01
(PID.TID 0000.0001) %MON dynstat_wvel_min             =  -7.7033880576390E-02
(PID.TID 0000.0001) %MON dynstat_wvel_mean            =   2.7588131617375E-19
(PID.TID 0000.0001) %MON dynstat_wvel_sd              =   5.1844194932132E-02
(PID.TID 0000.0001) %MON dynstat_wvel_del2            =   1.6735908972752E-03
(PID.TID 0000.0001) %MON dynstat_theta_max            =   4.1955348096031E+02
(PID.TID 0000.0001) %MON dynstat_theta_min            =   2.5503646775353E+02
(PID.TID 0000.0001) %MON dynstat_theta_mean           =   3.1869076369214E+02
(PID.TID 0000.0001) %MON dynstat_theta_sd             =   4.5634437331031E+01
(PID.TID 0000.0001) %MON dynstat_theta_del2           =   4.2535901322775E-02
(PID.TID 0000.0001) %MON dynstat_salt_max             =   0.0000000000000E+00
(PID.TID 0000.0001) %MON dynstat_salt_min             =   0.0000000000000E+00
(PID.TID 0000.0001) %MON dynstat_salt_mean            =   0.0000000000000E+00
(PID.TID 0000.0001) %MON dynstat_salt_sd              =   0.0000000000000E+00
(PID.TID 0000.0001) %MON dynstat_salt_del2            =   0.0000000000000E+00
(PID.TID 0000.0001) %MON advcfl_uvel_max              =   4.1465234703631E-21
(PID.TID 0000.0001) %MON advcfl_vvel_max              =   2.0235036780437E-02
(PID.TID 0000.0001) %MON advcfl_wvel_max              =   2.8679095504602E-02
(PID.TID 0000.0001) %MON advcfl_W_hf_max              =   2.8493754531618E-02
(PID.TID 0000.0001) %MON pe_b_mean                    =   2.9292403429025E-02
(PID.TID 0000.0001) %MON ke_max                       =   1.3026550730237E+01
(PID.TID 0000.0001) %MON ke_mean                      =   1.8764138447372E+00
(PID.TID 0000.0001) %MON ke_vol                       =   1.7486817826145E+22
(PID.TID 0000.0001) %MON vort_r_min                   =  -1.5300123704503E-21
(PID.TID 0000.0001) %MON vort_r_max                   =   3.2394289134380E-21
(PID.TID 0000.0001) %MON vort_a_mean                  =  -2.9209451854128E-21
(PID.TID 0000.0001) %MON vort_a_sd                    =   8.3955319514376E-05
(PID.TID 0000.0001) %MON vort_p_mean                  =   4.8186785874352E-22
(PID.TID 0000.0001) %MON vort_p_sd                    =   8.3955319514376E-05
(PID.TID 0000.0001) %MON surfExpan_theta_mean         =  -1.1110624479989E+00
(PID.TID 0000.0001) %MON surfExpan_salt_mean          =   0.0000000000000E+00
(PID.TID 0000.0001) %MON surfExpan_Heat_mean          =  -1.1205687082053E+02
(PID.TID 0000.0001) %MON En_Budget_T2PE_mean          =   3.0624056272672E+01
(PID.TID 0000.0001) // =======================================================
(PID.TID 0000.0001) // End MONITOR dynamic field statistics
(PID.TID 0000.0001) // =======================================================
 cg2d: Sum(rhs),rhsMax =   3.92741394961149E-15  1.89073450912131E+02
(PID.TID 0000.0001)                    cg2d_init_res =    2.90223016360501E+00
(PID.TID 0000.0001)                       cg2d_iters =    18
(PID.TID 0000.0001)                         cg2d_res =    5.24044958442679E-14
(PID.TID 0000.0001) // =======================================================
(PID.TID 0000.0001) // Begin MONITOR dynamic field statistics
(PID.TID 0000.0001) // =======================================================
(PID.TID 0000.0001) %MON time_tsnumber                =                     2
(PID.TID 0000.0001) %MON time_secondsf                =   2.4000000000000E+03
(PID.TID 0000.0001) %MON dynstat_eta_max              =   4.2435855957019E+02
(PID.TID 0000.0001) %MON dynstat_eta_min              =  -2.7278743290317E+02
(PID.TID 0000.0001) %MON dynstat_eta_mean             =   1.0847942826761E-16
(PID.TID 0000.0001) %MON dynstat_eta_sd               =   2.2413787102490E+02
(PID.TID 0000.0001) %MON dynstat_eta_del2             =   2.1382740075729E+00
(PID.TID 0000.0001) %MON dynstat_uvel_max             =   8.7088558281342E-01
(PID.TID 0000.0001) %MON dynstat_uvel_min             =   3.8323449779838E-05
(PID.TID 0000.0001) %MON dynstat_uvel_mean            =   2.3378345034816E-01
(PID.TID 0000.0001) %MON dynstat_uvel_sd              =   2.2937819869576E-01
(PID.TID 0000.0001) %MON dynstat_uvel_del2            =   2.4521493842444E-03
(PID.TID 0000.0001) %MON dynstat_vvel_max             =   1.0228690360855E+01
(PID.TID 0000.0001) %MON dynstat_vvel_min             =  -1.0228690359919E+01
(PID.TID 0000.0001) %MON dynstat_vvel_mean            =   1.3284391516161E-06
(PID.TID 0000.0001) %MON dynstat_vvel_sd              =   3.8107077297817E+00
(PID.TID 0000.0001) %MON dynstat_vvel_del2            =   2.5137231955965E-02
(PID.TID 0000.0001) %MON dynstat_wvel_max             =   2.3416605566668E-01
(PID.TID 0000.0001) %MON dynstat_wvel_min             =  -1.5028898017623E-01
(PID.TID 0000.0001) %MON dynstat_wvel_mean            =   6.9551039156646E-19
(PID.TID 0000.0001) %MON dynstat_wvel_sd              =   9.9653297297017E-02
(PID.TID 0000.0001) %MON dynstat_wvel_del2            =   1.8870499092333E-03
(PID.TID 0000.0001) %MON dynstat_theta_max            =   4.2021985667378E+02
(PID.TID 0000.0001) %MON dynstat_theta_min            =   2.5503651425748E+02
(PID.TID 0000.0001) %MON dynstat_theta_mean           =   3.1872449397904E+02
(PID.TID 0000.0001) %MON dynstat_theta_sd             =   4.5614068547636E+01
(PID.TID 0000.0001) %MON dynstat_theta_del2           =   4.3855131917721E-02
(PID.TID 0000.0001) %MON dynstat_salt_max             =   0.0000000000000E+00
(PID.TID 0000.0001) %MON dynstat_salt_min             =   0.0000000000000E+00
(PID.TID 0000.0001) %MON dynstat_salt_mean            =   0.0000000000000E+00
(PID.TID 0000.0001) %MON dynstat_salt_sd              =   0.0000000000000E+00
(PID.TID 0000.0001) %MON dynstat_salt_del2            =   0.0000000000000E+00
(PID.TID 0000.0001) %MON advcfl_uvel_max              =   3.0864927200849E-07
(PID.TID 0000.0001) %MON advcfl_vvel_max              =   3.9254725701601E-02
(PID.TID 0000.0001) %MON advcfl_wvel_max              =   5.6199853360004E-02
(PID.TID 0000.0001) %MON advcfl_W_hf_max              =   5.5934455812898E-02
(PID.TID 0000.0001) %MON pe_b_mean                    =   2.5118892613788E-01
(PID.TID 0000.0001) %MON ke_max                       =   8.3726296507290E+03
(PID.TID 0000.0001) %MON ke_mean                      =   7.3129286167997E+00
(PID.TID 0000.0001) %MON ke_vol                       =   1.7486817826145E+22
(PID.TID 0000.0001) %MON vort_r_min                   =  -1.1706374957312E-02
(PID.TID 0000.0001) %MON vort_r_max                   =   1.1708767949918E-02
(PID.TID 0000.0001) %MON vort_a_mean                  =   1.3612641660145E-14
(PID.TID 0000.0001) %MON vort_a_sd                    =   8.5416157463586E-05
(PID.TID 0000.0001) %MON vort_p_mean                  =   1.3612641737080E-14
(PID.TID 0000.0001) %MON vort_p_sd                    =   8.5416157463586E-05
(PID.TID 0000.0001) %MON surfExpan_theta_mean         =  -2.1724070081418E+00
(PID.TID 0000.0001) %MON surfExpan_salt_mean          =   0.0000000000000E+00
(PID.TID 0000.0001) %MON surfExpan_Heat_mean          =  -2.1909941418632E+02
(PID.TID 0000.0001) %MON En_Budget_T2PE_mean          =   5.9772667741355E+01
(PID.TID 0000.0001) // =======================================================
(PID.TID 0000.0001) // End MONITOR dynamic field statistics
(PID.TID 0000.0001) // =======================================================
 cg2d: Sum(rhs),rhsMax =   1.84574577843932E-15  3.69983935898352E+02
(PID.TID 0000.0001)                    cg2d_init_res =    2.11083859102479E+00
(PID.TID 0000.0001)                       cg2d_iters =    18
(PID.TID 0000.0001)                         cg2d_res =    3.26562912142788E-14
(PID.TID 0000.0001) // =======================================================
(PID.TID 0000.0001) // Begin MONITOR dynamic field statistics
(PID.TID 0000.0001) // =======================================================
(PID.TID 0000.0001) %MON time_tsnumber                =                     3
(PID.TID 0000.0001) %MON time_secondsf                =   3.6000000000000E+03
(PID.TID 0000.0001) %MON dynstat_eta_max              =   8.2446269050927E+02
(PID.TID 0000.0001) %MON dynstat_eta_min              =  -5.3368676356680E+02
(PID.TID 0000.0001) %MON dynstat_eta_mean             =   1.9257916640299E-14
(PID.TID 0000.0001) %MON dynstat_eta_sd               =   4.3546350888192E+02
(PID.TID 0000.0001) %MON dynstat_eta_del2             =   2.5720315670240E+00
(PID.TID 0000.0001) %MON dynstat_uvel_max             =   2.2294211938484E+00
(PID.TID 0000.0001) %MON dynstat_uvel_min             =  -1.8620007502279E-02
(PID.TID 0000.0001) %MON dynstat_uvel_mean            =   6.0431444527942E-01
(PID.TID 0000.0001) %MON dynstat_uvel_sd              =   5.9909600775454E-01
(PID.TID 0000.0001) %MON dynstat_uvel_del2            =   6.1770810289646E-03
(PID.TID 0000.0001) %MON dynstat_vvel_max             =   1.4565248770865E+01
(PID.TID 0000.0001) %MON dynstat_vvel_min             =  -1.4565248764353E+01
(PID.TID 0000.0001) %MON dynstat_vvel_mean            =   1.4594595462869E-06
(PID.TID 0000.0001) %MON dynstat_vvel_sd              =   5.5335218866428E+00
(PID.TID 0000.0001) %MON dynstat_vvel_del2            =   3.0428754674397E-02
(PID.TID 0000.0001) %MON dynstat_wvel_max             =   3.3342010911599E-01
(PID.TID 0000.0001) %MON dynstat_wvel_min             =  -2.1753228033545E-01
(PID.TID 0000.0001) %MON dynstat_wvel_mean            =   2.8277082048234E-18
(PID.TID 0000.0001) %MON dynstat_wvel_sd              =   1.4266620315131E-01
(PID.TID 0000.0001) %MON dynstat_wvel_del2            =   1.9144070790616E-03
(PID.TID 0000.0001) %MON dynstat_theta_max            =   4.2091730515042E+02
(PID.TID 0000.0001) %MON dynstat_theta_min            =   2.5503657555975E+02
(PID.TID 0000.0001) %MON dynstat_theta_mean           =   3.1876890231278E+02
(PID.TID 0000.0001) %MON dynstat_theta_sd             =   4.5587070059478E+01
(PID.TID 0000.0001) %MON dynstat_theta_del2           =   4.5686615498426E-02
(PID.TID 0000.0001) %MON dynstat_salt_max             =   0.0000000000000E+00
(PID.TID 0000.0001) %MON dynstat_salt_min             =   0.0000000000000E+00
(PID.TID 0000.0001) %MON dynstat_salt_mean            =   0.0000000000000E+00
(PID.TID 0000.0001) %MON dynstat_salt_sd              =   0.0000000000000E+00
(PID.TID 0000.0001) %MON dynstat_salt_del2            =   0.0000000000000E+00
(PID.TID 0000.0001) %MON advcfl_uvel_max              =   8.1391198761525E-07
(PID.TID 0000.0001) %MON advcfl_vvel_max              =   5.5897170126882E-02
(PID.TID 0000.0001) %MON advcfl_wvel_max              =   8.0020826187838E-02
(PID.TID 0000.0001) %MON advcfl_W_hf_max              =   7.9836374051934E-02
(PID.TID 0000.0001) %MON pe_b_mean                    =   9.4814233783876E-01
(PID.TID 0000.0001) %MON ke_max                       =   5.4649248908455E+04
(PID.TID 0000.0001) %MON ke_mean                      =   1.5668950253810E+01
(PID.TID 0000.0001) %MON ke_vol                       =   1.7486817826145E+22
(PID.TID 0000.0001) %MON vort_r_min                   =  -3.0655587233748E-02
(PID.TID 0000.0001) %MON vort_r_max                   =   3.0658947536092E-02
(PID.TID 0000.0001) %MON vort_a_mean                  =  -4.7431322024073E-15
(PID.TID 0000.0001) %MON vort_a_sd                    =   9.3006676006429E-05
(PID.TID 0000.0001) %MON vort_p_mean                  =  -4.7431276209137E-15
(PID.TID 0000.0001) %MON vort_p_sd                    =   9.3006676006429E-05
(PID.TID 0000.0001) %MON surfExpan_theta_mean         =  -3.1263834074928E+00
(PID.TID 0000.0001) %MON surfExpan_salt_mean          =   0.0000000000000E+00
(PID.TID 0000.0001) %MON surfExpan_Heat_mean          =  -3.1531327717885E+02
(PID.TID 0000.0001) %MON En_Budget_T2PE_mean          =   8.5968257202647E+01
(PID.TID 0000.0001) // =======================================================
(PID.TID 0000.0001) // End MONITOR dynamic field statistics
(PID.TID 0000.0001) // =======================================================
 cg2d: Sum(rhs),rhsMax =  -5.89805981832114E-16  6.00188020663696E+02
(PID.TID 0000.0001)                    cg2d_init_res =    1.63582230049311E+00
(PID.TID 0000.0001)                       cg2d_iters =    18
(PID.TID 0000.0001)                         cg2d_res =    1.85372007409462E-14
(PID.TID 0000.0001) // =======================================================
(PID.TID 0000.0001) // Begin MONITOR dynamic field statistics
(PID.TID 0000.0001) // =======================================================
(PID.TID 0000.0001) %MON time_tsnumber                =                     4
(PID.TID 0000.0001) %MON time_secondsf                =   4.8000000000000E+03
(PID.TID 0000.0001) %MON dynstat_eta_max              =   1.3212958932277E+03
(PID.TID 0000.0001) %MON dynstat_eta_min              =  -8.6541627901175E+02
(PID.TID 0000.0001) %MON dynstat_eta_mean             =   8.8174304514951E-16
(PID.TID 0000.0001) %MON dynstat_eta_sd               =   7.0179716651210E+02
(PID.TID 0000.0001) %MON dynstat_eta_del2             =   3.1001844825504E+00
(PID.TID 0000.0001) %MON dynstat_uvel_max             =   4.0093965036708E+00
(PID.TID 0000.0001) %MON dynstat_uvel_min             =  -7.2580076244208E-02
(PID.TID 0000.0001) %MON dynstat_uvel_mean            =   1.0932703796885E+00
(PID.TID 0000.0001) %MON dynstat_uvel_sd              =   1.0964637026118E+00
(PID.TID 0000.0001) %MON dynstat_uvel_del2            =   1.0567471317615E-02
(PID.TID 0000.0001) %MON dynstat_vvel_max             =   1.8296281264820E+01
(PID.TID 0000.0001) %MON dynstat_vvel_min             =  -1.8296281235608E+01
(PID.TID 0000.0001) %MON dynstat_vvel_mean            =   1.3843837736004E-06
(PID.TID 0000.0001) %MON dynstat_vvel_sd              =   7.0706027335730E+00
(PID.TID 0000.0001) %MON dynstat_vvel_del2            =   3.3581084009782E-02
(PID.TID 0000.0001) %MON dynstat_wvel_max             =   4.1434037532448E-01
(PID.TID 0000.0001) %MON dynstat_wvel_min             =  -2.7771168429203E-01
(PID.TID 0000.0001) %MON dynstat_wvel_mean            =  -2.6480757893917E-19
(PID.TID 0000.0001) %MON dynstat_wvel_sd              =   1.8057777343293E-01
(PID.TID 0000.0001) %MON dynstat_wvel_del2            =   1.7880804342097E-03
(PID.TID 0000.0001) %MON dynstat_theta_max            =   4.2160298211646E+02
(PID.TID 0000.0001) %MON dynstat_theta_min            =   2.5503670912312E+02
(PID.TID 0000.0001) %MON dynstat_theta_mean           =   3.1882219334581E+02
(PID.TID 0000.0001) %MON dynstat_theta_sd             =   4.5554484177355E+01
(PID.TID 0000.0001) %MON dynstat_theta_del2           =   4.6837027014747E-02
(PID.TID 0000.0001) %MON dynstat_salt_max             =   0.0000000000000E+00
(PID.TID 0000.0001) %MON dynstat_salt_min             =   0.0000000000000E+00
(PID.TID 0000.0001) %MON dynstat_salt_mean            =   0.0000000000000E+00
(PID.TID 0000.0001) %MON dynstat_salt_sd              =   0.0000000000000E+00
(PID.TID 0000.0001) %MON dynstat_salt_del2            =   0.0000000000000E+00
(PID.TID 0000.0001) %MON advcfl_uvel_max              =   1.4928053805493E-06
(PID.TID 0000.0001) %MON advcfl_vvel_max              =   7.0215782966552E-02
(PID.TID 0000.0001) %MON advcfl_wvel_max              =   9.9366640543705E-02
(PID.TID 0000.0001) %MON advcfl_W_hf_max              =   9.9441690077876E-02
(PID.TID 0000.0001) %MON pe_b_mean                    =   2.4625963146221E+00
(PID.TID 0000.0001) %MON ke_max                       =   1.7658678130333E+05
(PID.TID 0000.0001) %MON ke_mean                      =   2.6190548773642E+01
(PID.TID 0000.0001) %MON ke_vol                       =   1.7486817826145E+22
(PID.TID 0000.0001) %MON vort_r_min                   =  -5.5813745297555E-02
(PID.TID 0000.0001) %MON vort_r_max                   =   5.5817620584823E-02
(PID.TID 0000.0001) %MON vort_a_mean                  =  -1.3285235884702E-14
(PID.TID 0000.0001) %MON vort_a_sd                    =   1.1052247646064E-04
(PID.TID 0000.0001) %MON vort_p_mean                  =  -1.3285240690236E-14
(PID.TID 0000.0001) %MON vort_p_sd                    =   1.1052247646064E-04
(PID.TID 0000.0001) %MON surfExpan_theta_mean         =  -3.9465762269439E+00
(PID.TID 0000.0001) %MON surfExpan_salt_mean          =   0.0000000000000E+00
(PID.TID 0000.0001) %MON surfExpan_Heat_mean          =  -3.9803431683121E+02
(PID.TID 0000.0001) %MON En_Budget_T2PE_mean          =   1.0858601663613E+02
(PID.TID 0000.0001) // =======================================================
(PID.TID 0000.0001) // End MONITOR dynamic field statistics
(PID.TID 0000.0001) // =======================================================
 cg2d: Sum(rhs),rhsMax =  -1.13103970633688E-15  8.71578060597489E+02
(PID.TID 0000.0001)                    cg2d_init_res =    1.31214051656167E+00
(PID.TID 0000.0001)                       cg2d_iters =    17
(PID.TID 0000.0001)                         cg2d_res =    6.51647989300699E-14
(PID.TID 0000.0001) // =======================================================
(PID.TID 0000.0001) // Begin MONITOR dynamic field statistics
(PID.TID 0000.0001) // =======================================================
(PID.TID 0000.0001) %MON time_tsnumber                =                     5
(PID.TID 0000.0001) %MON time_secondsf                =   6.0000000000000E+03
(PID.TID 0000.0001) %MON dynstat_eta_max              =   1.8889461099978E+03
(PID.TID 0000.0001) %MON dynstat_eta_min              =  -1.2560243582753E+03
(PID.TID 0000.0001) %MON dynstat_eta_mean             =   6.4790473101747E-15
(PID.TID 0000.0001) %MON dynstat_eta_sd               =   1.0127023340078E+03
(PID.TID 0000.0001) %MON dynstat_eta_del2             =   3.6963020494870E+00
(PID.TID 0000.0001) %MON dynstat_uvel_max             =   6.1544675364993E+00
(PID.TID 0000.0001) %MON dynstat_uvel_min             =  -1.8651686328649E-01
(PID.TID 0000.0001) %MON dynstat_uvel_mean            =   1.6817315675115E+00
(PID.TID 0000.0001) %MON dynstat_uvel_sd              =   1.7094970018551E+00
(PID.TID 0000.0001) %MON dynstat_uvel_del2            =   1.5548591600999E-02
(PID.TID 0000.0001) %MON dynstat_vvel_max             =   2.1567476136927E+01
(PID.TID 0000.0001) %MON dynstat_vvel_min             =  -2.1567476082076E+01
(PID.TID 0000.0001) %MON dynstat_vvel_mean            =   1.2246680441793E-06
(PID.TID 0000.0001) %MON dynstat_vvel_sd              =   8.3873304597392E+00
(PID.TID 0000.0001) %MON dynstat_vvel_del2            =   3.5366608603297E-02
(PID.TID 0000.0001) %MON dynstat_wvel_max             =   4.7513783105189E-01
(PID.TID 0000.0001) %MON dynstat_wvel_min             =  -3.2874760551285E-01
(PID.TID 0000.0001) %MON dynstat_wvel_mean            =   1.0405724389986E-18
(PID.TID 0000.0001) %MON dynstat_wvel_sd              =   2.1261939776438E-01
(PID.TID 0000.0001) %MON dynstat_wvel_del2            =   1.6156822099175E-03
(PID.TID 0000.0001) %MON dynstat_theta_max            =   4.2224749975955E+02
(PID.TID 0000.0001) %MON dynstat_theta_min            =   2.5503701842097E+02
(PID.TID 0000.0001) %MON dynstat_theta_mean           =   3.1888226791898E+02
(PID.TID 0000.0001) %MON dynstat_theta_sd             =   4.5517528431781E+01
(PID.TID 0000.0001) %MON dynstat_theta_del2           =   4.7263988735697E-02
(PID.TID 0000.0001) %MON dynstat_salt_max             =   0.0000000000000E+00
(PID.TID 0000.0001) %MON dynstat_salt_min             =   0.0000000000000E+00
(PID.TID 0000.0001) %MON dynstat_salt_mean            =   0.0000000000000E+00
(PID.TID 0000.0001) %MON dynstat_salt_sd              =   0.0000000000000E+00
(PID.TID 0000.0001) %MON dynstat_salt_del2            =   0.0000000000000E+00
(PID.TID 0000.0001) %MON advcfl_uvel_max              =   2.3233080052739E-06
(PID.TID 0000.0001) %MON advcfl_vvel_max              =   8.2769673336769E-02
(PID.TID 0000.0001) %MON advcfl_wvel_max              =   1.1353029154657E-01
(PID.TID 0000.0001) %MON advcfl_W_hf_max              =   1.1403307945245E-01
(PID.TID 0000.0001) %MON pe_b_mean                    =   5.1278300865246E+00
(PID.TID 0000.0001) %MON ke_max                       =   4.1593071786180E+05
(PID.TID 0000.0001) %MON ke_mean                      =   3.8042182279793E+01
(PID.TID 0000.0001) %MON ke_vol                       =   1.7486817826145E+22
(PID.TID 0000.0001) %MON vort_r_min                   =  -8.6223541461545E-02
(PID.TID 0000.0001) %MON vort_r_max                   =   8.6227715472923E-02
(PID.TID 0000.0001) %MON vort_a_mean                  =  -1.1467011496887E-14
(PID.TID 0000.0001) %MON vort_a_sd                    =   1.3862103565521E-04
(PID.TID 0000.0001) %MON vort_p_mean                  =  -1.1467014338088E-14
(PID.TID 0000.0001) %MON vort_p_sd                    =   1.3862103565521E-04
(PID.TID 0000.0001) %MON surfExpan_theta_mean         =  -4.6074863017872E+00
(PID.TID 0000.0001) %MON surfExpan_salt_mean          =   0.0000000000000E+00
(PID.TID 0000.0001) %MON surfExpan_Heat_mean          =  -4.6469079956455E+02
(PID.TID 0000.0001) %MON En_Budget_T2PE_mean          =   1.2705881689406E+02
(PID.TID 0000.0001) // =======================================================
(PID.TID 0000.0001) // End MONITOR dynamic field statistics
(PID.TID 0000.0001) // =======================================================
 cg2d: Sum(rhs),rhsMax =  -1.62370117351429E-15  1.17463757355382E+03
(PID.TID 0000.0001)                    cg2d_init_res =    1.07483849718930E+00
(PID.TID 0000.0001)                       cg2d_iters =    17
(PID.TID 0000.0001)                         cg2d_res =    4.83649816418931E-14
(PID.TID 0000.0001) // =======================================================
(PID.TID 0000.0001) // Begin MONITOR dynamic field statistics
(PID.TID 0000.0001) // =======================================================
(PID.TID 0000.0001) %MON time_tsnumber                =                     6
(PID.TID 0000.0001) %MON time_secondsf                =   7.2000000000000E+03
(PID.TID 0000.0001) %MON dynstat_eta_max              =   2.4997129949852E+03
(PID.TID 0000.0001) %MON dynstat_eta_min              =  -1.6915056490296E+03
(PID.TID 0000.0001) %MON dynstat_eta_mean             =   1.2877430430099E-14
(PID.TID 0000.0001) %MON dynstat_eta_sd               =   1.3563936677447E+03
(PID.TID 0000.0001) %MON dynstat_eta_del2             =   4.2695724486673E+00
(PID.TID 0000.0001) %MON dynstat_uvel_max             =   8.6004656508273E+00
(PID.TID 0000.0001) %MON dynstat_uvel_min             =  -3.6890563224277E-01
(PID.TID 0000.0001) %MON dynstat_uvel_mean            =   2.3473604556684E+00
(PID.TID 0000.0001) %MON dynstat_uvel_sd              =   2.4231949419125E+00
(PID.TID 0000.0001) %MON dynstat_uvel_del2            =   2.0771654340633E-02
(PID.TID 0000.0001) %MON dynstat_vvel_max             =   2.4351166815467E+01
(PID.TID 0000.0001) %MON dynstat_vvel_min             =  -2.4351166655904E+01
(PID.TID 0000.0001) %MON dynstat_vvel_mean            =   1.0351052774109E-06
(PID.TID 0000.0001) %MON dynstat_vvel_sd              =   9.4576600072533E+00
(PID.TID 0000.0001) %MON dynstat_vvel_del2            =   3.6061050202031E-02
(PID.TID 0000.0001) %MON dynstat_wvel_max             =   5.1342596616543E-01
(PID.TID 0000.0001) %MON dynstat_wvel_min             =  -3.6907331891718E-01
(PID.TID 0000.0001) %MON dynstat_wvel_mean            =   3.2413547332199E-18
(PID.TID 0000.0001) %MON dynstat_wvel_sd              =   2.3810215998439E-01
(PID.TID 0000.0001) %MON dynstat_wvel_del2            =   1.4839446149578E-03
(PID.TID 0000.0001) %MON dynstat_theta_max            =   4.2283844424325E+02
(PID.TID 0000.0001) %MON dynstat_theta_min            =   2.5503763345904E+02
(PID.TID 0000.0001) %MON dynstat_theta_mean           =   3.1894683054759E+02
(PID.TID 0000.0001) %MON dynstat_theta_sd             =   4.5477570854356E+01
(PID.TID 0000.0001) %MON dynstat_theta_del2           =   4.7260284119578E-02
(PID.TID 0000.0001) %MON dynstat_salt_max             =   0.0000000000000E+00
(PID.TID 0000.0001) %MON dynstat_salt_min             =   0.0000000000000E+00
(PID.TID 0000.0001) %MON dynstat_salt_mean            =   0.0000000000000E+00
(PID.TID 0000.0001) %MON dynstat_salt_sd              =   0.0000000000000E+00
(PID.TID 0000.0001) %MON dynstat_salt_del2            =   0.0000000000000E+00
(PID.TID 0000.0001) %MON advcfl_uvel_max              =   3.2764449912765E-06
(PID.TID 0000.0001) %MON advcfl_vvel_max              =   9.3452665016952E-02
(PID.TID 0000.0001) %MON advcfl_wvel_max              =   1.2215439535748E-01
(PID.TID 0000.0001) %MON advcfl_W_hf_max              =   1.2322223187970E-01
(PID.TID 0000.0001) %MON pe_b_mean                    =   9.1990189094898E+00
(PID.TID 0000.0001) %MON ke_max                       =   8.1208791301612E+05
(PID.TID 0000.0001) %MON ke_mean                      =   5.0406244466339E+01
(PID.TID 0000.0001) %MON ke_vol                       =   1.7486817826145E+22
(PID.TID 0000.0001) %MON vort_r_min                   =  -1.2070743522628E-01
(PID.TID 0000.0001) %MON vort_r_max                   =   1.2071168223456E-01
(PID.TID 0000.0001) %MON vort_a_mean                  =  -6.2039457008714E-15
(PID.TID 0000.0001) %MON vort_a_sd                    =   1.7554363004449E-04
(PID.TID 0000.0001) %MON vort_p_mean                  =  -6.2039455621894E-15
(PID.TID 0000.0001) %MON vort_p_sd                    =   1.7554363004449E-04
(PID.TID 0000.0001) %MON surfExpan_theta_mean         =  -5.0893841607334E+00
(PID.TID 0000.0001) %MON surfExpan_salt_mean          =   0.0000000000000E+00
(PID.TID 0000.0001) %MON surfExpan_Heat_mean          =  -5.1329289769674E+02
(PID.TID 0000.0001) %MON En_Budget_T2PE_mean          =   1.4099760246214E+02
(PID.TID 0000.0001) // =======================================================
(PID.TID 0000.0001) // End MONITOR dynamic field statistics
(PID.TID 0000.0001) // =======================================================
 cg2d: Sum(rhs),rhsMax =  -5.72458747072346E-15  1.49858166118168E+03
(PID.TID 0000.0001)                    cg2d_init_res =    8.91221112196275E-01
(PID.TID 0000.0001)                       cg2d_iters =    17
(PID.TID 0000.0001)                         cg2d_res =    3.35332230889691E-14
(PID.TID 0000.0001) // =======================================================
(PID.TID 0000.0001) // Begin MONITOR dynamic field statistics
(PID.TID 0000.0001) // =======================================================
(PID.TID 0000.0001) %MON time_tsnumber                =                     7
(PID.TID 0000.0001) %MON time_secondsf                =   8.4000000000000E+03
(PID.TID 0000.0001) %MON dynstat_eta_max              =   3.1262331261825E+03
(PID.TID 0000.0001) %MON dynstat_eta_min              =  -2.1561100328880E+03
(PID.TID 0000.0001) %MON dynstat_eta_mean             =   5.3428680351613E-14
(PID.TID 0000.0001) %MON dynstat_eta_sd               =   1.7201578108010E+03
(PID.TID 0000.0001) %MON dynstat_eta_del2             =   5.1193901812444E+00
(PID.TID 0000.0001) %MON dynstat_uvel_max             =   1.1278497127401E+01
(PID.TID 0000.0001) %MON dynstat_uvel_min             =  -6.3493940734267E-01
(PID.TID 0000.0001) %MON dynstat_uvel_mean            =   3.0654497124001E+00
(PID.TID 0000.0001) %MON dynstat_uvel_sd              =   3.2201765640941E+00
(PID.TID 0000.0001) %MON dynstat_uvel_del2            =   2.6015650025143E-02
(PID.TID 0000.0001) %MON dynstat_vvel_max             =   2.6475554239387E+01
(PID.TID 0000.0001) %MON dynstat_vvel_min             =  -2.6475553854434E+01
(PID.TID 0000.0001) %MON dynstat_vvel_mean            =   8.3583726705199E-07
(PID.TID 0000.0001) %MON dynstat_vvel_sd              =   1.0265790253858E+01
(PID.TID 0000.0001) %MON dynstat_vvel_del2            =   3.6541011896099E-02
(PID.TID 0000.0001) %MON dynstat_wvel_max             =   5.2924942510740E-01
(PID.TID 0000.0001) %MON dynstat_wvel_min             =  -3.9736250584128E-01
(PID.TID 0000.0001) %MON dynstat_wvel_mean            =   1.6930581434925E-18
(PID.TID 0000.0001) %MON dynstat_wvel_sd              =   2.5652800458606E-01
(PID.TID 0000.0001) %MON dynstat_wvel_del2            =   1.4149622948747E-03
(PID.TID 0000.0001) %MON dynstat_theta_max            =   4.2350902341389E+02
(PID.TID 0000.0001) %MON dynstat_theta_min            =   2.5503866893321E+02
(PID.TID 0000.0001) %MON dynstat_theta_mean           =   3.1901347496647E+02
(PID.TID 0000.0001) %MON dynstat_theta_sd             =   4.5436084578554E+01
(PID.TID 0000.0001) %MON dynstat_theta_del2           =   4.7000359309930E-02
(PID.TID 0000.0001) %MON dynstat_salt_max             =   0.0000000000000E+00
(PID.TID 0000.0001) %MON dynstat_salt_min             =   0.0000000000000E+00
(PID.TID 0000.0001) %MON dynstat_salt_mean            =   0.0000000000000E+00
(PID.TID 0000.0001) %MON dynstat_salt_sd              =   0.0000000000000E+00
(PID.TID 0000.0001) %MON dynstat_salt_del2            =   0.0000000000000E+00
(PID.TID 0000.0001) %MON advcfl_uvel_max              =   4.3180202426668E-06
(PID.TID 0000.0001) %MON advcfl_vvel_max              =   1.0160544339502E-01
(PID.TID 0000.0001) %MON advcfl_wvel_max              =   1.2530492436801E-01
(PID.TID 0000.0001) %MON advcfl_W_hf_max              =   1.2701986202578E-01
(PID.TID 0000.0001) %MON pe_b_mean                    =   1.4794714470298E+01
(PID.TID 0000.0001) %MON ke_max                       =   1.3964166245194E+06
(PID.TID 0000.0001) %MON ke_mean                      =   6.2566895528087E+01
(PID.TID 0000.0001) %MON ke_vol                       =   1.7486817826145E+22
(PID.TID 0000.0001) %MON vort_r_min                   =  -1.5794453380168E-01
(PID.TID 0000.0001) %MON vort_r_max                   =   1.5794869072677E-01
(PID.TID 0000.0001) %MON vort_a_mean                  =  -6.4800152680255E-16
(PID.TID 0000.0001) %MON vort_a_sd                    =   2.1895744687829E-04
(PID.TID 0000.0001) %MON vort_p_mean                  =  -6.4799013370563E-16
(PID.TID 0000.0001) %MON vort_p_sd                    =   2.1895744687829E-04
(PID.TID 0000.0001) %MON surfExpan_theta_mean         =  -5.3791239938708E+00
(PID.TID 0000.0001) %MON surfExpan_salt_mean          =   0.0000000000000E+00
(PID.TID 0000.0001) %MON surfExpan_Heat_mean          =  -5.4251478266992E+02
(PID.TID 0000.0001) %MON En_Budget_T2PE_mean          =   1.5020524563957E+02
(PID.TID 0000.0001) // =======================================================
(PID.TID 0000.0001) // End MONITOR dynamic field statistics
(PID.TID 0000.0001) // =======================================================
 cg2d: Sum(rhs),rhsMax =  -2.35228503342455E-15  1.83164888954286E+03
(PID.TID 0000.0001)                    cg2d_init_res =    7.43136255376179E-01
(PID.TID 0000.0001)                       cg2d_iters =    17
(PID.TID 0000.0001)                         cg2d_res =    1.98957356958593E-14
(PID.TID 0000.0001) // =======================================================
(PID.TID 0000.0001) // Begin MONITOR dynamic field statistics
(PID.TID 0000.0001) // =======================================================
(PID.TID 0000.0001) %MON time_tsnumber                =                     8
(PID.TID 0000.0001) %MON time_secondsf                =   9.6000000000000E+03
(PID.TID 0000.0001) %MON dynstat_eta_max              =   3.7434381972056E+03
(PID.TID 0000.0001) %MON dynstat_eta_min              =  -2.6328837627075E+03
(PID.TID 0000.0001) %MON dynstat_eta_mean             =   1.2256125850386E-14
(PID.TID 0000.0001) %MON dynstat_eta_sd               =   2.0907965873848E+03
(PID.TID 0000.0001) %MON dynstat_eta_del2             =   5.9697937316513E+00
(PID.TID 0000.0001) %MON dynstat_uvel_max             =   1.4117347579118E+01
(PID.TID 0000.0001) %MON dynstat_uvel_min             =  -1.0001354672885E+00
(PID.TID 0000.0001) %MON dynstat_uvel_mean            =   3.8097532121432E+00
(PID.TID 0000.0001) %MON dynstat_uvel_sd              =   4.0811544588686E+00
(PID.TID 0000.0001) %MON dynstat_uvel_del2            =   3.1303522082794E-02
(PID.TID 0000.0001) %MON dynstat_vvel_max             =   2.7915329833998E+01
(PID.TID 0000.0001) %MON dynstat_vvel_min             =  -2.7915329041458E+01
(PID.TID 0000.0001) %MON dynstat_vvel_mean            =   6.3632573753560E-07
(PID.TID 0000.0001) %MON dynstat_vvel_sd              =   1.0807279520375E+01
(PID.TID 0000.0001) %MON dynstat_vvel_del2            =   3.6943368963174E-02
(PID.TID 0000.0001) %MON dynstat_wvel_max             =   5.2419746616338E-01
(PID.TID 0000.0001) %MON dynstat_wvel_min             =  -4.1270451727937E-01
(PID.TID 0000.0001) %MON dynstat_wvel_mean            =   1.6497407649025E-18
(PID.TID 0000.0001) %MON dynstat_wvel_sd              =   2.6764377157851E-01
(PID.TID 0000.0001) %MON dynstat_wvel_del2            =   1.3819967664821E-03
(PID.TID 0000.0001) %MON dynstat_theta_max            =   4.2420420479992E+02
(PID.TID 0000.0001) %MON dynstat_theta_min            =   2.5504018235290E+02
(PID.TID 0000.0001) %MON dynstat_theta_mean           =   3.1907977034277E+02
(PID.TID 0000.0001) %MON dynstat_theta_sd             =   4.5394599203923E+01
(PID.TID 0000.0001) %MON dynstat_theta_del2           =   4.7163747895001E-02
(PID.TID 0000.0001) %MON dynstat_salt_max             =   0.0000000000000E+00
(PID.TID 0000.0001) %MON dynstat_salt_min             =   0.0000000000000E+00
(PID.TID 0000.0001) %MON dynstat_salt_mean            =   0.0000000000000E+00
(PID.TID 0000.0001) %MON dynstat_salt_sd              =   0.0000000000000E+00
(PID.TID 0000.0001) %MON dynstat_salt_del2            =   0.0000000000000E+00
(PID.TID 0000.0001) %MON advcfl_uvel_max              =   5.4105124429350E-06
(PID.TID 0000.0001) %MON advcfl_vvel_max              =   1.0713088155420E-01
(PID.TID 0000.0001) %MON advcfl_wvel_max              =   1.2344171032826E-01
(PID.TID 0000.0001) %MON advcfl_W_hf_max              =   1.2580739187921E-01
(PID.TID 0000.0001) %MON pe_b_mean                    =   2.1857151849099E+01
(PID.TID 0000.0001) %MON ke_max                       =   2.1877091618484E+06
(PID.TID 0000.0001) %MON ke_mean                      =   7.3973503990827E+01
(PID.TID 0000.0001) %MON ke_vol                       =   1.7486817826145E+22
(PID.TID 0000.0001) %MON vort_r_min                   =  -1.9654387069695E-01
(PID.TID 0000.0001) %MON vort_r_max                   =   1.9654784698572E-01
(PID.TID 0000.0001) %MON vort_a_mean                  =   4.7282676313562E-15
(PID.TID 0000.0001) %MON vort_a_sd                    =   2.6670424601074E-04
(PID.TID 0000.0001) %MON vort_p_mean                  =   4.7282654646398E-15
(PID.TID 0000.0001) %MON vort_p_sd                    =   2.6670424601074E-04
(PID.TID 0000.0001) %MON surfExpan_theta_mean         =  -5.4704773743239E+00
(PID.TID 0000.0001) %MON surfExpan_salt_mean          =   0.0000000000000E+00
(PID.TID 0000.0001) %MON surfExpan_Heat_mean          =  -5.5172828274895E+02
(PID.TID 0000.0001) %MON En_Budget_T2PE_mean          =   1.5467267693819E+02
(PID.TID 0000.0001) // =======================================================
(PID.TID 0000.0001) // End MONITOR dynamic field statistics
(PID.TID 0000.0001) // =======================================================
 cg2d: Sum(rhs),rhsMax =   7.21644966006352E-16  2.16161545349292E+03
(PID.TID 0000.0001)                    cg2d_init_res =    6.19717264654275E-01
(PID.TID 0000.0001)                       cg2d_iters =    17
(PID.TID 0000.0001)                         cg2d_res =    1.77769046602317E-14
(PID.TID 0000.0001) // =======================================================
(PID.TID 0000.0001) // Begin MONITOR dynamic field statistics
(PID.TID 0000.0001) // =======================================================
(PID.TID 0000.0001) %MON time_tsnumber                =                     9
(PID.TID 0000.0001) %MON time_secondsf                =   1.0800000000000E+04
(PID.TID 0000.0001) %MON dynstat_eta_max              =   4.3297961162489E+03
(PID.TID 0000.0001) %MON dynstat_eta_min              =  -3.1044711478148E+03
(PID.TID 0000.0001) %MON dynstat_eta_mean             =  -3.7598881999958E-15
(PID.TID 0000.0001) %MON dynstat_eta_sd               =   2.4550947831452E+03
(PID.TID 0000.0001) %MON dynstat_eta_del2             =   6.8144299802190E+00
(PID.TID 0000.0001) %MON dynstat_uvel_max             =   1.7045336931582E+01
(PID.TID 0000.0001) %MON dynstat_uvel_min             =  -1.4793092117196E+00
(PID.TID 0000.0001) %MON dynstat_uvel_mean            =   4.5533538918143E+00
(PID.TID 0000.0001) %MON dynstat_uvel_sd              =   4.9855333854050E+00
(PID.TID 0000.0001) %MON dynstat_uvel_del2            =   3.6654981642981E-02
(PID.TID 0000.0001) %MON dynstat_vvel_max             =   2.8780894232198E+01
(PID.TID 0000.0001) %MON dynstat_vvel_min             =  -2.8780893294798E+01
(PID.TID 0000.0001) %MON dynstat_vvel_mean            =   4.4412816443682E-07
(PID.TID 0000.0001) %MON dynstat_vvel_sd              =   1.1089990704650E+01
(PID.TID 0000.0001) %MON dynstat_vvel_del2            =   3.7450320729086E-02
(PID.TID 0000.0001) %MON dynstat_wvel_max             =   5.0137231602787E-01
(PID.TID 0000.0001) %MON dynstat_wvel_min             =  -4.2656620848665E-01
(PID.TID 0000.0001) %MON dynstat_wvel_mean            =   2.6269034703245E-18
(PID.TID 0000.0001) %MON dynstat_wvel_sd              =   2.7148170166409E-01
(PID.TID 0000.0001) %MON dynstat_wvel_del2            =   1.3679804649140E-03
(PID.TID 0000.0001) %MON dynstat_theta_max            =   4.2484926168522E+02
(PID.TID 0000.0001) %MON dynstat_theta_min            =   2.5504214739767E+02
(PID.TID 0000.0001) %MON dynstat_theta_mean           =   3.1914334740189E+02
(PID.TID 0000.0001) %MON dynstat_theta_sd             =   4.5354646510997E+01
(PID.TID 0000.0001) %MON dynstat_theta_del2           =   4.7210104895237E-02
(PID.TID 0000.0001) %MON dynstat_salt_max             =   0.0000000000000E+00
(PID.TID 0000.0001) %MON dynstat_salt_min             =   0.0000000000000E+00
(PID.TID 0000.0001) %MON dynstat_salt_mean            =   0.0000000000000E+00
(PID.TID 0000.0001) %MON dynstat_salt_sd              =   0.0000000000000E+00
(PID.TID 0000.0001) %MON dynstat_salt_del2            =   0.0000000000000E+00
(PID.TID 0000.0001) %MON advcfl_uvel_max              =   6.5151827664749E-06
(PID.TID 0000.0001) %MON advcfl_vvel_max              =   1.1045266487442E-01
(PID.TID 0000.0001) %MON advcfl_wvel_max              =   1.1781834188822E-01
(PID.TID 0000.0001) %MON advcfl_W_hf_max              =   1.2032935584669E-01
(PID.TID 0000.0001) %MON pe_b_mean                    =   3.0137451971133E+01
(PID.TID 0000.0001) %MON ke_max                       =   3.1891515209614E+06
(PID.TID 0000.0001) %MON ke_mean                      =   8.4278174661457E+01
(PID.TID 0000.0001) %MON ke_vol                       =   1.7486817826145E+22
(PID.TID 0000.0001) %MON vort_r_min                   =  -2.3511136937111E-01
(PID.TID 0000.0001) %MON vort_r_max                   =   2.3511511318090E-01
(PID.TID 0000.0001) %MON vort_a_mean                  =   1.0041301240341E-14
(PID.TID 0000.0001) %MON vort_a_sd                    =   3.1686510662896E-04
(PID.TID 0000.0001) %MON vort_p_mean                  =   1.0041296483219E-14
(PID.TID 0000.0001) %MON vort_p_sd                    =   3.1686510662896E-04
(PID.TID 0000.0001) %MON surfExpan_theta_mean         =  -5.3642524637606E+00
(PID.TID 0000.0001) %MON surfExpan_salt_mean          =   0.0000000000000E+00
(PID.TID 0000.0001) %MON surfExpan_Heat_mean          =  -5.4101490556448E+02
(PID.TID 0000.0001) %MON En_Budget_T2PE_mean          =   1.5456342530780E+02
(PID.TID 0000.0001) // =======================================================
(PID.TID 0000.0001) // End MONITOR dynamic field statistics
(PID.TID 0000.0001) // =======================================================
 cg2d: Sum(rhs),rhsMax =   3.96210841913103E-15  2.47650463481223E+03
(PID.TID 0000.0001)                    cg2d_init_res =    5.13984106215242E-01
(PID.TID 0000.0001)                       cg2d_iters =    17
(PID.TID 0000.0001)                         cg2d_res =    1.79157339811195E-14
(PID.TID 0000.0001) // =======================================================
(PID.TID 0000.0001) // Begin MONITOR dynamic field statistics
(PID.TID 0000.0001) // =======================================================
(PID.TID 0000.0001) %MON time_tsnumber                =                    10
(PID.TID 0000.0001) %MON time_secondsf                =   1.2000000000000E+04
(PID.TID 0000.0001) %MON dynstat_eta_max              =   4.8674442991409E+03
(PID.TID 0000.0001) %MON dynstat_eta_min              =  -3.5540859418200E+03
(PID.TID 0000.0001) %MON dynstat_eta_mean             =  -1.3533401580142E-13
(PID.TID 0000.0001) %MON dynstat_eta_sd               =   2.8002956201311E+03
(PID.TID 0000.0001) %MON dynstat_eta_del2             =   7.6443077352543E+00
(PID.TID 0000.0001) %MON dynstat_uvel_max             =   1.9991772058578E+01
(PID.TID 0000.0001) %MON dynstat_uvel_min             =  -2.0855477935531E+00
(PID.TID 0000.0001) %MON dynstat_uvel_mean            =   5.2695842819315E+00
(PID.TID 0000.0001) %MON dynstat_uvel_sd              =   5.9121502804361E+00
(PID.TID 0000.0001) %MON dynstat_uvel_del2            =   4.1813187953834E-02
(PID.TID 0000.0001) %MON dynstat_vvel_max             =   2.9178771848219E+01
(PID.TID 0000.0001) %MON dynstat_vvel_min             =  -2.9178770276293E+01
(PID.TID 0000.0001) %MON dynstat_vvel_mean            =   2.6630156087019E-07
(PID.TID 0000.0001) %MON dynstat_vvel_sd              =   1.1134787464270E+01
(PID.TID 0000.0001) %MON dynstat_vvel_del2            =   3.8286001840090E-02
(PID.TID 0000.0001) %MON dynstat_wvel_max             =   4.7178920814757E-01
(PID.TID 0000.0001) %MON dynstat_wvel_min             =  -4.3072886825260E-01
(PID.TID 0000.0001) %MON dynstat_wvel_mean            =   8.2347454336686E-19
(PID.TID 0000.0001) %MON dynstat_wvel_sd              =   2.6838405353830E-01
(PID.TID 0000.0001) %MON dynstat_wvel_del2            =   1.3996407548189E-03
(PID.TID 0000.0001) %MON dynstat_theta_max            =   4.2545066171434E+02
(PID.TID 0000.0001) %MON dynstat_theta_min            =   2.5504444692852E+02
(PID.TID 0000.0001) %MON dynstat_theta_mean           =   3.1920198128155E+02
(PID.TID 0000.0001) %MON dynstat_theta_sd             =   4.5317701398915E+01
(PID.TID 0000.0001) %MON dynstat_theta_del2           =   4.6966625667146E-02
(PID.TID 0000.0001) %MON dynstat_salt_max             =   0.0000000000000E+00
(PID.TID 0000.0001) %MON dynstat_salt_min             =   0.0000000000000E+00
(PID.TID 0000.0001) %MON dynstat_salt_mean            =   0.0000000000000E+00
(PID.TID 0000.0001) %MON dynstat_salt_sd              =   0.0000000000000E+00
(PID.TID 0000.0001) %MON dynstat_salt_del2            =   0.0000000000000E+00
(PID.TID 0000.0001) %MON advcfl_uvel_max              =   7.5938562511396E-06
(PID.TID 0000.0001) %MON advcfl_vvel_max              =   1.1197960294066E-01
(PID.TID 0000.0001) %MON advcfl_wvel_max              =   1.1035745563006E-01
(PID.TID 0000.0001) %MON advcfl_W_hf_max              =   1.1322940995542E-01
(PID.TID 0000.0001) %MON pe_b_mean                    =   3.9208277800628E+01
(PID.TID 0000.0001) %MON ke_max                       =   4.3868529981472E+06
(PID.TID 0000.0001) %MON ke_mean                      =   9.3343466194240E+01
(PID.TID 0000.0001) %MON ke_vol                       =   1.7486817826145E+22
(PID.TID 0000.0001) %MON vort_r_min                   =  -2.7229522880172E-01
(PID.TID 0000.0001) %MON vort_r_max                   =   2.7229870313275E-01
(PID.TID 0000.0001) %MON vort_a_mean                  =   1.5246915904548E-14
(PID.TID 0000.0001) %MON vort_a_sd                    =   3.6770365967985E-04
(PID.TID 0000.0001) %MON vort_p_mean                  =   1.5246911845104E-14
(PID.TID 0000.0001) %MON vort_p_sd                    =   3.6770365967985E-04
(PID.TID 0000.0001) %MON surfExpan_theta_mean         =  -5.0681723239282E+00
(PID.TID 0000.0001) %MON surfExpan_salt_mean          =   0.0000000000000E+00
(PID.TID 0000.0001) %MON surfExpan_Heat_mean          =  -5.1115356514974E+02
(PID.TID 0000.0001) %MON En_Budget_T2PE_mean          =   1.5018884221168E+02
(PID.TID 0000.0001) // =======================================================
(PID.TID 0000.0001) // End MONITOR dynamic field statistics
(PID.TID 0000.0001) // =======================================================
objf_test       314.8    1   31    1 TILE     1   31    1    1
objf_test       629.6    2   31    1 TILE     2   31    1    1
objf_test       944.7    1   32    1 TILE     1   32    1    1
objf_test      1259.8    2   32    1 TILE     2   32    1    1
objf_test      1574.9    1   33    1 TILE     1   33    1    1
objf_test      1890.0    2   33    1 TILE     2   33    1    1
objf_test      2204.8    1   34    1 TILE     1   34    1    1
objf_test      2519.6    2   34    1 TILE     2   34    1    1
objf_test      2833.8    1   35    1 TILE     1   35    1    1
objf_test      3148.0    2   35    1 TILE     2   35    1    1
objf_test      3461.4    1   36    1 TILE     1   36    1    1
objf_test      3774.8    2   36    1 TILE     2   36    1    1
objf_test      4087.0    1   37    1 TILE     1   37    1    1
objf_test      4399.2    2   37    1 TILE     2   37    1    1
objf_test      4710.1    1   38    1 TILE     1   38    1    1
objf_test      5020.9    2   38    1 TILE     2   38    1    1
objf_test      5330.1    1   39    1 TILE     1   39    1    1
objf_test      5639.3    2   39    1 TILE     2   39    1    1
  --> objf_test(bi,bj)   =  626.587786
  --> objf_tracer(bi,bj) =  0.
  --> objf_atl(bi,bj)    =  0.
  local fc =   626.587786
  global fc =   626.587786
 ph-check fcpertplus =   626.587786
(PID.TID 0000.0001)  MDSREADFIELD: opening file: xx_theta.0000000000.001.001.data
 ph-check fcpertminus =   626.587786
(PID.TID 0000.0001)  MDSREADFIELD: opening file: xx_theta.0000000000.001.001.data
(PID.TID 0000.0001) %MON En_BudgetfCori_max           =   1.4540029928789E-04
(PID.TID 0000.0001) %MON En_BudgetfCori_min           =  -1.4540029928789E-04
(PID.TID 0000.0001) %MON En_BudgetfCori_mean          =   0.0000000000000E+00
(PID.TID 0000.0001) %MON En_BudgetfCori_sd            =   1.0284451245737E-04
(PID.TID 0000.0001) %MON En_BudgetfCoriG_max          =   1.4526891053949E-04
(PID.TID 0000.0001) %MON En_BudgetfCoriG_min          =  -1.4544410433286E-04
(PID.TID 0000.0001) %MON En_BudgetfCoriG_mean         =  -2.3086365767121E-06
(PID.TID 0000.0001) %MON En_BudgetfCoriG_sd           =   1.0363181330709E-04
(PID.TID 0000.0001) %MON En_BudgetfCoriCos_max        =   1.4540029928789E-04
(PID.TID 0000.0001) %MON En_BudgetfCoriCos_min        =   3.5693770017430E-06
(PID.TID 0000.0001) %MON En_BudgetfCoriCos_mean       =   9.2601889431869E-05
(PID.TID 0000.0001) %MON En_BudgetfCoriCos_sd         =   4.4742416298653E-05
(PID.TID 0000.0001) // CG2D normalisation factor =          0.2278126663032464164969763E-09
(PID.TID 0000.0001) 
(PID.TID 0000.0001) // =======================================================
(PID.TID 0000.0001) // Field Initial Temperature at iteration          1
(PID.TID 0000.0001) // CMIN =          2.550364452389422E+02
(PID.TID 0000.0001) // CMAX =          3.154764877049333E+02
(PID.TID 0000.0001) // CINT =          2.238520091333006E+00
(PID.TID 0000.0001) // SYMBOLS (CMIN->CMAX): -abcdefghijklmnopqrstuvwxyz+
(PID.TID 0000.0001) //                  0.0: .
(PID.TID 0000.0001) // RANGE I (Lo:Hi:Step):(   1:   2:   1)
(PID.TID 0000.0001) // RANGE J (Lo:Hi:Step):(  64:   1:  -1)
(PID.TID 0000.0001) // RANGE K (Lo:Hi:Step):(   1:   1:   1)
(PID.TID 0000.0001) // =======================================================
(PID.TID 0000.0001) K =   1
(PID.TID 0000.0001) 
(PID.TID 0000.0001) |--J--|12
(PID.TID 0000.0001)     64 --
(PID.TID 0000.0001)     63 --
(PID.TID 0000.0001)     62 --
(PID.TID 0000.0001)     61 aa
(PID.TID 0000.0001)     60 aa
(PID.TID 0000.0001)     59 bb
(PID.TID 0000.0001)     58 cc
(PID.TID 0000.0001)     57 cc
(PID.TID 0000.0001)     56 dd
(PID.TID 0000.0001)     55 ee
(PID.TID 0000.0001)     54 gg
(PID.TID 0000.0001)     53 hh
(PID.TID 0000.0001)     52 ii
(PID.TID 0000.0001)     51 jj
(PID.TID 0000.0001)     50 ll
(PID.TID 0000.0001)     49 mm
(PID.TID 0000.0001)     48 nn
(PID.TID 0000.0001)     47 oo
(PID.TID 0000.0001)     46 qq
(PID.TID 0000.0001)     45 rr
(PID.TID 0000.0001)     44 ss
(PID.TID 0000.0001)     43 tt
(PID.TID 0000.0001)     42 vv
(PID.TID 0000.0001)     41 ww
(PID.TID 0000.0001)     40 xx
(PID.TID 0000.0001)     39 xx
(PID.TID 0000.0001)     38 yy
(PID.TID 0000.0001)     37 zz
(PID.TID 0000.0001)     36 zz
(PID.TID 0000.0001)     35 ++
(PID.TID 0000.0001)     34 ++
(PID.TID 0000.0001)     33 ++
(PID.TID 0000.0001)     32 ++
(PID.TID 0000.0001)     31 ++
(PID.TID 0000.0001)     30 ++
(PID.TID 0000.0001)     29 zz
(PID.TID 0000.0001)     28 zz
(PID.TID 0000.0001)     27 yy
(PID.TID 0000.0001)     26 xx
(PID.TID 0000.0001)     25 xx
(PID.TID 0000.0001)     24 ww
(PID.TID 0000.0001)     23 vv
(PID.TID 0000.0001)     22 tt
(PID.TID 0000.0001)     21 ss
(PID.TID 0000.0001)     20 rr
(PID.TID 0000.0001)     19 qq
(PID.TID 0000.0001)     18 oo
(PID.TID 0000.0001)     17 nn
(PID.TID 0000.0001)     16 mm
(PID.TID 0000.0001)     15 ll
(PID.TID 0000.0001)     14 jj
(PID.TID 0000.0001)     13 ii
(PID.TID 0000.0001)     12 hh
(PID.TID 0000.0001)     11 gg
(PID.TID 0000.0001)     10 ee
(PID.TID 0000.0001)      9 dd
(PID.TID 0000.0001)      8 cc
(PID.TID 0000.0001)      7 cc
(PID.TID 0000.0001)      6 bb
(PID.TID 0000.0001)      5 aa
(PID.TID 0000.0001)      4 aa
(PID.TID 0000.0001)      3 --
(PID.TID 0000.0001)      2 --
(PID.TID 0000.0001)      1 --
(PID.TID 0000.0001) // =======================================================
(PID.TID 0000.0001) // END OF FIELD                                          =
(PID.TID 0000.0001) // =======================================================
(PID.TID 0000.0001) 
(PID.TID 0000.0001) // =======================================================
(PID.TID 0000.0001) // Field Initial Salinity at iteration          1
(PID.TID 0000.0001) // CMIN =          1.000000000000000E+32
(PID.TID 0000.0001) // CMAX =         -1.000000000000000E+32
(PID.TID 0000.0001) // CINT =          0.000000000000000E+00
(PID.TID 0000.0001) // SYMBOLS (CMIN->CMAX): -abcdefghijklmnopqrstuvwxyz+
(PID.TID 0000.0001) //                  0.0: .
(PID.TID 0000.0001) // RANGE I (Lo:Hi:Step):(   1:   2:   1)
(PID.TID 0000.0001) // RANGE J (Lo:Hi:Step):(  64:   1:  -1)
(PID.TID 0000.0001) // RANGE K (Lo:Hi:Step):(   1:   1:   1)
(PID.TID 0000.0001) // =======================================================
(PID.TID 0000.0001) // =======================================================
(PID.TID 0000.0001) // END OF FIELD                                          =
(PID.TID 0000.0001) // =======================================================
(PID.TID 0000.0001) 
(PID.TID 0000.0001) Start initial hydrostatic pressure computation
(PID.TID 0000.0001) Pressure is predetermined for buoyancyRelation ATMOSPHERIC
(PID.TID 0000.0001) 
(PID.TID 0000.0001)  MDSREADFIELD: opening file: xx_theta.0000000000.001.001.data
(PID.TID 0000.0001)  MDSREADFIELD: opening file: xx_salt.0000000000.001.001.data
(PID.TID 0000.0001)  MDSREADFIELD: opening file: xx_diffkr.0000000000.001.001.data
(PID.TID 0000.0001) // =======================================================
(PID.TID 0000.0001) // Model current state
(PID.TID 0000.0001) // =======================================================
(PID.TID 0000.0001) 
(PID.TID 0000.0001) // =======================================================
(PID.TID 0000.0001) // Begin MONITOR dynamic field statistics
(PID.TID 0000.0001) // =======================================================
(PID.TID 0000.0001) %MON time_tsnumber                =                     0
(PID.TID 0000.0001) %MON time_secondsf                =   0.0000000000000E+00
(PID.TID 0000.0001) %MON dynstat_eta_max              =   0.0000000000000E+00
(PID.TID 0000.0001) %MON dynstat_eta_min              =   0.0000000000000E+00
(PID.TID 0000.0001) %MON dynstat_eta_mean             =   0.0000000000000E+00
(PID.TID 0000.0001) %MON dynstat_eta_sd               =   0.0000000000000E+00
(PID.TID 0000.0001) %MON dynstat_eta_del2             =   0.0000000000000E+00
(PID.TID 0000.0001) %MON dynstat_uvel_max             =   0.0000000000000E+00
(PID.TID 0000.0001) %MON dynstat_uvel_min             =   0.0000000000000E+00
(PID.TID 0000.0001) %MON dynstat_uvel_mean            =   0.0000000000000E+00
(PID.TID 0000.0001) %MON dynstat_uvel_sd              =   0.0000000000000E+00
(PID.TID 0000.0001) %MON dynstat_uvel_del2            =   0.0000000000000E+00
(PID.TID 0000.0001) %MON dynstat_vvel_max             =   0.0000000000000E+00
(PID.TID 0000.0001) %MON dynstat_vvel_min             =   0.0000000000000E+00
(PID.TID 0000.0001) %MON dynstat_vvel_mean            =   0.0000000000000E+00
(PID.TID 0000.0001) %MON dynstat_vvel_sd              =   0.0000000000000E+00
(PID.TID 0000.0001) %MON dynstat_vvel_del2            =   0.0000000000000E+00
(PID.TID 0000.0001) %MON dynstat_wvel_max             =   0.0000000000000E+00
(PID.TID 0000.0001) %MON dynstat_wvel_min             =   0.0000000000000E+00
(PID.TID 0000.0001) %MON dynstat_wvel_mean            =   0.0000000000000E+00
(PID.TID 0000.0001) %MON dynstat_wvel_sd              =   0.0000000000000E+00
(PID.TID 0000.0001) %MON dynstat_wvel_del2            =   0.0000000000000E+00
(PID.TID 0000.0001) %MON dynstat_theta_max            =   4.1921910192279E+02
(PID.TID 0000.0001) %MON dynstat_theta_min            =   2.5503644523894E+02
(PID.TID 0000.0001) %MON dynstat_theta_mean           =   3.1867742458515E+02
(PID.TID 0000.0001) %MON dynstat_theta_sd             =   4.5642509650382E+01
(PID.TID 0000.0001) %MON dynstat_theta_del2           =   4.0241168714763E-02
(PID.TID 0000.0001) %MON dynstat_salt_max             =   0.0000000000000E+00
(PID.TID 0000.0001) %MON dynstat_salt_min             =   0.0000000000000E+00
(PID.TID 0000.0001) %MON dynstat_salt_mean            =   0.0000000000000E+00
(PID.TID 0000.0001) %MON dynstat_salt_sd              =   0.0000000000000E+00
(PID.TID 0000.0001) %MON dynstat_salt_del2            =   0.0000000000000E+00
(PID.TID 0000.0001) %MON advcfl_uvel_max              =   0.0000000000000E+00
(PID.TID 0000.0001) %MON advcfl_vvel_max              =   0.0000000000000E+00
(PID.TID 0000.0001) %MON advcfl_wvel_max              =   0.0000000000000E+00
(PID.TID 0000.0001) %MON advcfl_W_hf_max              =   0.0000000000000E+00
(PID.TID 0000.0001) %MON pe_b_mean                    =   0.0000000000000E+00
(PID.TID 0000.0001) %MON ke_max                       =   0.0000000000000E+00
(PID.TID 0000.0001) %MON ke_mean                      =   0.0000000000000E+00
(PID.TID 0000.0001) %MON ke_vol                       =   1.7486817826145E+22
(PID.TID 0000.0001) %MON vort_r_min                   =   0.0000000000000E+00
(PID.TID 0000.0001) %MON vort_r_max                   =   0.0000000000000E+00
(PID.TID 0000.0001) %MON vort_a_mean                  =  -2.9209451854128E-21
(PID.TID 0000.0001) %MON vort_a_sd                    =   8.3955319514376E-05
(PID.TID 0000.0001) %MON vort_p_mean                  =   4.8186785874352E-22
(PID.TID 0000.0001) %MON vort_p_sd                    =   8.3955319514376E-05
(PID.TID 0000.0001) %MON surfExpan_theta_mean         =   0.0000000000000E+00
(PID.TID 0000.0001) %MON surfExpan_salt_mean          =   0.0000000000000E+00
(PID.TID 0000.0001) %MON surfExpan_Heat_mean          =   0.0000000000000E+00
(PID.TID 0000.0001) %MON En_Budget_T2PE_mean          =   0.0000000000000E+00
(PID.TID 0000.0001) // =======================================================
(PID.TID 0000.0001) // End MONITOR dynamic field statistics
(PID.TID 0000.0001) // =======================================================
 cg2d: Sum(rhs),rhsMax =  -2.08166817117217E-15  8.97359314695382E+01
(PID.TID 0000.0001)                    cg2d_init_res =    3.34521744979025E+00
(PID.TID 0000.0001)                       cg2d_iters =    19
(PID.TID 0000.0001)                         cg2d_res =    4.03837880458055E-14
(PID.TID 0000.0001) // =======================================================
(PID.TID 0000.0001) // Begin MONITOR dynamic field statistics
(PID.TID 0000.0001) // =======================================================
(PID.TID 0000.0001) %MON time_tsnumber                =                     1
(PID.TID 0000.0001) %MON time_secondsf                =   1.2000000000000E+03
(PID.TID 0000.0001) %MON dynstat_eta_max              =   1.4335929277102E+02
(PID.TID 0000.0001) %MON dynstat_eta_min              =  -9.2440656691674E+01
(PID.TID 0000.0001) %MON dynstat_eta_mean             =  -5.5294954726085E-15
(PID.TID 0000.0001) %MON dynstat_eta_sd               =   7.6540739695673E+01
(PID.TID 0000.0001) %MON dynstat_eta_del2             =   1.0992340359757E+00
(PID.TID 0000.0001) %MON dynstat_uvel_max             =   5.8502081897574E-16
(PID.TID 0000.0001) %MON dynstat_uvel_min             =  -5.8502081897574E-16
(PID.TID 0000.0001) %MON dynstat_uvel_mean            =   0.0000000000000E+00
(PID.TID 0000.0001) %MON dynstat_uvel_sd              =   2.0624769740894E-17
(PID.TID 0000.0001) %MON dynstat_uvel_del2            =   3.1290378271080E-17
(PID.TID 0000.0001) %MON dynstat_vvel_max             =   5.2726881150810E+00
(PID.TID 0000.0001) %MON dynstat_vvel_min             =  -5.2726881151489E+00
(PID.TID 0000.0001) %MON dynstat_vvel_mean            =  -8.2600361784669E-07
(PID.TID 0000.0001) %MON dynstat_vvel_sd              =   1.9374167117061E+00
(PID.TID 0000.0001) %MON dynstat_vvel_del2            =   1.5139398918252E-02
(PID.TID 0000.0001) %MON dynstat_wvel_max             =   1.1946607730912E-01
(PID.TID 0000.0001) %MON dynstat_wvel_min             =  -7.7033880576391E-02
(PID.TID 0000.0001) %MON dynstat_wvel_mean            =   3.9764871522223E-19
(PID.TID 0000.0001) %MON dynstat_wvel_sd              =   5.1844208381623E-02
(PID.TID 0000.0001) %MON dynstat_wvel_del2            =   1.6735908200244E-03
(PID.TID 0000.0001) %MON dynstat_theta_max            =   4.1955348096026E+02
(PID.TID 0000.0001) %MON dynstat_theta_min            =   2.5503592500825E+02
(PID.TID 0000.0001) %MON dynstat_theta_mean           =   3.1869076195702E+02
(PID.TID 0000.0001) %MON dynstat_theta_sd             =   4.5634439734643E+01
(PID.TID 0000.0001) %MON dynstat_theta_del2           =   4.2535901267386E-02
(PID.TID 0000.0001) %MON dynstat_salt_max             =   0.0000000000000E+00
(PID.TID 0000.0001) %MON dynstat_salt_min             =   0.0000000000000E+00
(PID.TID 0000.0001) %MON dynstat_salt_mean            =   0.0000000000000E+00
(PID.TID 0000.0001) %MON dynstat_salt_sd              =   0.0000000000000E+00
(PID.TID 0000.0001) %MON dynstat_salt_del2            =   0.0000000000000E+00
(PID.TID 0000.0001) %MON advcfl_uvel_max              =   4.1681650333608E-21
(PID.TID 0000.0001) %MON advcfl_vvel_max              =   2.0235036780698E-02
(PID.TID 0000.0001) %MON advcfl_wvel_max              =   2.8671858554188E-02
(PID.TID 0000.0001) %MON advcfl_W_hf_max              =   2.8482436498480E-02
(PID.TID 0000.0001) %MON pe_b_mean                    =   2.9292424165804E-02
(PID.TID 0000.0001) %MON ke_max                       =   1.3026550730488E+01
(PID.TID 0000.0001) %MON ke_mean                      =   1.8764148869544E+00
(PID.TID 0000.0001) %MON ke_vol                       =   1.7486817826145E+22
(PID.TID 0000.0001) %MON vort_r_min                   =  -2.5753187434892E-21
(PID.TID 0000.0001) %MON vort_r_max                   =   3.2394289134380E-21
(PID.TID 0000.0001) %MON vort_a_mean                  =  -2.9209451854128E-21
(PID.TID 0000.0001) %MON vort_a_sd                    =   8.3955319514376E-05
(PID.TID 0000.0001) %MON vort_p_mean                  =   4.8186785874352E-22
(PID.TID 0000.0001) %MON vort_p_sd                    =   8.3955319514376E-05
(PID.TID 0000.0001) %MON surfExpan_theta_mean         =  -1.1110650091697E+00
(PID.TID 0000.0001) %MON surfExpan_salt_mean          =   0.0000000000000E+00
(PID.TID 0000.0001) %MON surfExpan_Heat_mean          =  -1.1205712912896E+02
(PID.TID 0000.0001) %MON En_Budget_T2PE_mean          =   3.0624070362058E+01
(PID.TID 0000.0001) // =======================================================
(PID.TID 0000.0001) // End MONITOR dynamic field statistics
(PID.TID 0000.0001) // =======================================================
 cg2d: Sum(rhs),rhsMax =  -2.77555756156289E-17  1.89073450912133E+02
(PID.TID 0000.0001)                    cg2d_init_res =    2.90222741484260E+00
(PID.TID 0000.0001)                       cg2d_iters =    18
(PID.TID 0000.0001)                         cg2d_res =    5.23668833509816E-14
(PID.TID 0000.0001) // =======================================================
(PID.TID 0000.0001) // Begin MONITOR dynamic field statistics
(PID.TID 0000.0001) // =======================================================
(PID.TID 0000.0001) %MON time_tsnumber                =                     2
(PID.TID 0000.0001) %MON time_secondsf                =   2.4000000000000E+03
(PID.TID 0000.0001) %MON dynstat_eta_max              =   4.2436069392840E+02
(PID.TID 0000.0001) %MON dynstat_eta_min              =  -2.7278743290320E+02
(PID.TID 0000.0001) %MON dynstat_eta_mean             =   6.8463731474917E-15
(PID.TID 0000.0001) %MON dynstat_eta_sd               =   2.2413795077933E+02
(PID.TID 0000.0001) %MON dynstat_eta_del2             =   2.1382725942736E+00
(PID.TID 0000.0001) %MON dynstat_uvel_max             =   8.7088558283252E-01
(PID.TID 0000.0001) %MON dynstat_uvel_min             =   3.8323449779848E-05
(PID.TID 0000.0001) %MON dynstat_uvel_mean            =   2.3378390436229E-01
(PID.TID 0000.0001) %MON dynstat_uvel_sd              =   2.2937808363250E-01
(PID.TID 0000.0001) %MON dynstat_uvel_del2            =   2.4523264792781E-03
(PID.TID 0000.0001) %MON dynstat_vvel_max             =   1.0228690360855E+01
(PID.TID 0000.0001) %MON dynstat_vvel_min             =  -1.0228690361791E+01
(PID.TID 0000.0001) %MON dynstat_vvel_mean            =  -1.3284292613377E-06
(PID.TID 0000.0001) %MON dynstat_vvel_sd              =   3.8107087634958E+00
(PID.TID 0000.0001) %MON dynstat_vvel_del2            =   2.5136876068252E-02
(PID.TID 0000.0001) %MON dynstat_wvel_max             =   2.3419798825859E-01
(PID.TID 0000.0001) %MON dynstat_wvel_min             =  -1.5028898017625E-01
(PID.TID 0000.0001) %MON dynstat_wvel_mean            =   4.4284951059751E-19
(PID.TID 0000.0001) %MON dynstat_wvel_sd              =   9.9653323628787E-02
(PID.TID 0000.0001) %MON dynstat_wvel_del2            =   1.8870494553144E-03
(PID.TID 0000.0001) %MON dynstat_theta_max            =   4.2021985667295E+02
(PID.TID 0000.0001) %MON dynstat_theta_min            =   2.5503570561733E+02
(PID.TID 0000.0001) %MON dynstat_theta_mean           =   3.1872449234425E+02
(PID.TID 0000.0001) %MON dynstat_theta_sd             =   4.5614070815330E+01
(PID.TID 0000.0001) %MON dynstat_theta_del2           =   4.3855137164272E-02
(PID.TID 0000.0001) %MON dynstat_salt_max             =   0.0000000000000E+00
(PID.TID 0000.0001) %MON dynstat_salt_min             =   0.0000000000000E+00
(PID.TID 0000.0001) %MON dynstat_salt_mean            =   0.0000000000000E+00
(PID.TID 0000.0001) %MON dynstat_salt_sd              =   0.0000000000000E+00
(PID.TID 0000.0001) %MON dynstat_salt_del2            =   0.0000000000000E+00
(PID.TID 0000.0001) %MON advcfl_uvel_max              =   3.0856231979444E-07
(PID.TID 0000.0001) %MON advcfl_vvel_max              =   3.9254725705193E-02
(PID.TID 0000.0001) %MON advcfl_wvel_max              =   5.6207517182061E-02
(PID.TID 0000.0001) %MON advcfl_W_hf_max              =   5.5934753936488E-02
(PID.TID 0000.0001) %MON pe_b_mean                    =   2.5118910489779E-01
(PID.TID 0000.0001) %MON ke_max                       =   8.3726296511083E+03
(PID.TID 0000.0001) %MON ke_mean                      =   7.3129326349474E+00
(PID.TID 0000.0001) %MON ke_vol                       =   1.7486817826145E+22
(PID.TID 0000.0001) %MON vort_r_min                   =  -1.1711160942523E-02
(PID.TID 0000.0001) %MON vort_r_max                   =   1.1708767949918E-02
(PID.TID 0000.0001) %MON vort_a_mean                  =  -1.3612640389270E-14
(PID.TID 0000.0001) %MON vort_a_sd                    =   8.5416162301595E-05
(PID.TID 0000.0001) %MON vort_p_mean                  =  -1.3612638481827E-14
(PID.TID 0000.0001) %MON vort_p_sd                    =   8.5416162301595E-05
(PID.TID 0000.0001) %MON surfExpan_theta_mean         =  -2.1724118805005E+00
(PID.TID 0000.0001) %MON surfExpan_salt_mean          =   0.0000000000000E+00
(PID.TID 0000.0001) %MON surfExpan_Heat_mean          =  -2.1909990559098E+02
(PID.TID 0000.0001) %MON En_Budget_T2PE_mean          =   5.9772694242571E+01
(PID.TID 0000.0001) // =======================================================
(PID.TID 0000.0001) // End MONITOR dynamic field statistics
(PID.TID 0000.0001) // =======================================================
 cg2d: Sum(rhs),rhsMax =  -1.59594559789866E-15  3.69983935898387E+02
(PID.TID 0000.0001)                    cg2d_init_res =    2.11083731273406E+00
(PID.TID 0000.0001)                       cg2d_iters =    18
(PID.TID 0000.0001)                         cg2d_res =    3.26442042480682E-14
(PID.TID 0000.0001) // =======================================================
(PID.TID 0000.0001) // Begin MONITOR dynamic field statistics
(PID.TID 0000.0001) // =======================================================
(PID.TID 0000.0001) %MON time_tsnumber                =                     3
(PID.TID 0000.0001) %MON time_secondsf                =   3.6000000000000E+03
(PID.TID 0000.0001) %MON dynstat_eta_max              =   8.2450408987710E+02
(PID.TID 0000.0001) %MON dynstat_eta_min              =  -5.3368676356714E+02
(PID.TID 0000.0001) %MON dynstat_eta_mean             =   1.5152607102925E-14
(PID.TID 0000.0001) %MON dynstat_eta_sd               =   4.3546365685336E+02
(PID.TID 0000.0001) %MON dynstat_eta_del2             =   2.5720214193023E+00
(PID.TID 0000.0001) %MON dynstat_uvel_max             =   2.2294211941128E+00
(PID.TID 0000.0001) %MON dynstat_uvel_min             =  -1.8620007243448E-02
(PID.TID 0000.0001) %MON dynstat_uvel_mean            =   6.0431545275741E-01
(PID.TID 0000.0001) %MON dynstat_uvel_sd              =   5.9909585296905E-01
(PID.TID 0000.0001) %MON dynstat_uvel_del2            =   6.1771583782850E-03
(PID.TID 0000.0001) %MON dynstat_vvel_max             =   1.4565248770865E+01
(PID.TID 0000.0001) %MON dynstat_vvel_min             =  -1.4565248777376E+01
(PID.TID 0000.0001) %MON dynstat_vvel_mean            =  -1.4594444042822E-06
(PID.TID 0000.0001) %MON dynstat_vvel_sd              =   5.5335232949034E+00
(PID.TID 0000.0001) %MON dynstat_vvel_del2            =   3.0427168245154E-02
(PID.TID 0000.0001) %MON dynstat_wvel_max             =   3.3345282995733E-01
(PID.TID 0000.0001) %MON dynstat_wvel_min             =  -2.1753228033568E-01
(PID.TID 0000.0001) %MON dynstat_wvel_mean            =   1.9749548499350E-18
(PID.TID 0000.0001) %MON dynstat_wvel_sd              =   1.4266623743304E-01
(PID.TID 0000.0001) %MON dynstat_wvel_del2            =   1.9144020107207E-03
(PID.TID 0000.0001) %MON dynstat_theta_max            =   4.2091730514592E+02
(PID.TID 0000.0001) %MON dynstat_theta_min            =   2.5503561444714E+02
(PID.TID 0000.0001) %MON dynstat_theta_mean           =   3.1876890079024E+02
(PID.TID 0000.0001) %MON dynstat_theta_sd             =   4.5587072177502E+01
(PID.TID 0000.0001) %MON dynstat_theta_del2           =   4.5686617119160E-02
(PID.TID 0000.0001) %MON dynstat_salt_max             =   0.0000000000000E+00
(PID.TID 0000.0001) %MON dynstat_salt_min             =   0.0000000000000E+00
(PID.TID 0000.0001) %MON dynstat_salt_mean            =   0.0000000000000E+00
(PID.TID 0000.0001) %MON dynstat_salt_sd              =   0.0000000000000E+00
(PID.TID 0000.0001) %MON dynstat_salt_del2            =   0.0000000000000E+00
(PID.TID 0000.0001) %MON advcfl_uvel_max              =   8.1387042094869E-07
(PID.TID 0000.0001) %MON advcfl_vvel_max              =   5.5897170151870E-02
(PID.TID 0000.0001) %MON advcfl_wvel_max              =   8.0028679189759E-02
(PID.TID 0000.0001) %MON advcfl_W_hf_max              =   7.9835956234900E-02
(PID.TID 0000.0001) %MON pe_b_mean                    =   9.4814298220052E-01
(PID.TID 0000.0001) %MON ke_max                       =   5.4649248921527E+04
(PID.TID 0000.0001) %MON ke_mean                      =   1.5668958561042E+01
(PID.TID 0000.0001) %MON ke_vol                       =   1.7486817826145E+22
(PID.TID 0000.0001) %MON vort_r_min                   =  -3.0662307793981E-02
(PID.TID 0000.0001) %MON vort_r_max                   =   3.0658947536092E-02
(PID.TID 0000.0001) %MON vort_a_mean                  =   4.7433349209759E-15
(PID.TID 0000.0001) %MON vort_a_sd                    =   9.3006693795440E-05
(PID.TID 0000.0001) %MON vort_p_mean                  =   4.7433376719264E-15
(PID.TID 0000.0001) %MON vort_p_sd                    =   9.3006693795440E-05
(PID.TID 0000.0001) %MON surfExpan_theta_mean         =  -3.1263901223879E+00
(PID.TID 0000.0001) %MON surfExpan_salt_mean          =   0.0000000000000E+00
(PID.TID 0000.0001) %MON surfExpan_Heat_mean          =  -3.1531395441363E+02
(PID.TID 0000.0001) %MON En_Budget_T2PE_mean          =   8.5968292966432E+01
(PID.TID 0000.0001) // =======================================================
(PID.TID 0000.0001) // End MONITOR dynamic field statistics
(PID.TID 0000.0001) // =======================================================
 cg2d: Sum(rhs),rhsMax =  -4.26048085699904E-15  6.00188020664148E+02
(PID.TID 0000.0001)                    cg2d_init_res =    1.63582176419243E+00
(PID.TID 0000.0001)                       cg2d_iters =    18
(PID.TID 0000.0001)                         cg2d_res =    1.85305648280539E-14
(PID.TID 0000.0001) // =======================================================
(PID.TID 0000.0001) // Begin MONITOR dynamic field statistics
(PID.TID 0000.0001) // =======================================================
(PID.TID 0000.0001) %MON time_tsnumber                =                     4
(PID.TID 0000.0001) %MON time_secondsf                =   4.8000000000000E+03
(PID.TID 0000.0001) %MON dynstat_eta_max              =   1.3213513561147E+03
(PID.TID 0000.0001) %MON dynstat_eta_min              =  -8.6541627901438E+02
(PID.TID 0000.0001) %MON dynstat_eta_mean             =   1.2311170742462E-15
(PID.TID 0000.0001) %MON dynstat_eta_sd               =   7.0179738536512E+02
(PID.TID 0000.0001) %MON dynstat_eta_del2             =   3.1001716386355E+00
(PID.TID 0000.0001) %MON dynstat_uvel_max             =   4.0093965055553E+00
(PID.TID 0000.0001) %MON dynstat_uvel_min             =  -7.2580075435613E-02
(PID.TID 0000.0001) %MON dynstat_uvel_mean            =   1.0932719009993E+00
(PID.TID 0000.0001) %MON dynstat_uvel_sd              =   1.0964636405584E+00
(PID.TID 0000.0001) %MON dynstat_uvel_del2            =   1.0567441833876E-02
(PID.TID 0000.0001) %MON dynstat_vvel_max             =   1.8296281264820E+01
(PID.TID 0000.0001) %MON dynstat_vvel_min             =  -1.8296281294032E+01
(PID.TID 0000.0001) %MON dynstat_vvel_mean            =  -1.3843679401636E-06
(PID.TID 0000.0001) %MON dynstat_vvel_sd              =   7.0706043909687E+00
(PID.TID 0000.0001) %MON dynstat_vvel_del2            =   3.3581652032620E-02
(PID.TID 0000.0001) %MON dynstat_wvel_max             =   4.1431821124611E-01
(PID.TID 0000.0001) %MON dynstat_wvel_min             =  -2.7771168429376E-01
(PID.TID 0000.0001) %MON dynstat_wvel_mean            =   1.8023721463636E-18
(PID.TID 0000.0001) %MON dynstat_wvel_sd              =   1.8057780948940E-01
(PID.TID 0000.0001) %MON dynstat_wvel_del2            =   1.7880819848770E-03
(PID.TID 0000.0001) %MON dynstat_theta_max            =   4.2160298209269E+02
(PID.TID 0000.0001) %MON dynstat_theta_min            =   2.5503565711830E+02
(PID.TID 0000.0001) %MON dynstat_theta_mean           =   3.1882219194357E+02
(PID.TID 0000.0001) %MON dynstat_theta_sd             =   4.5554486135752E+01
(PID.TID 0000.0001) %MON dynstat_theta_del2           =   4.6837023903117E-02
(PID.TID 0000.0001) %MON dynstat_salt_max             =   0.0000000000000E+00
(PID.TID 0000.0001) %MON dynstat_salt_min             =   0.0000000000000E+00
(PID.TID 0000.0001) %MON dynstat_salt_mean            =   0.0000000000000E+00
(PID.TID 0000.0001) %MON dynstat_salt_sd              =   0.0000000000000E+00
(PID.TID 0000.0001) %MON dynstat_salt_del2            =   0.0000000000000E+00
(PID.TID 0000.0001) %MON advcfl_uvel_max              =   1.4927750445495E-06
(PID.TID 0000.0001) %MON advcfl_vvel_max              =   7.0215783078659E-02
(PID.TID 0000.0001) %MON advcfl_wvel_max              =   9.9369453247534E-02
(PID.TID 0000.0001) %MON advcfl_W_hf_max              =   9.9436370699067E-02
(PID.TID 0000.0001) %MON pe_b_mean                    =   2.4625978505266E+00
(PID.TID 0000.0001) %MON ke_max                       =   1.7658678146996E+05
(PID.TID 0000.0001) %MON ke_mean                      =   2.6190562085403E+01
(PID.TID 0000.0001) %MON ke_vol                       =   1.7486817826145E+22
(PID.TID 0000.0001) %MON vort_r_min                   =  -5.5821495800142E-02
(PID.TID 0000.0001) %MON vort_r_max                   =   5.5817620584823E-02
(PID.TID 0000.0001) %MON vort_a_mean                  =   1.3285409976133E-14
(PID.TID 0000.0001) %MON vort_a_sd                    =   1.1052251842842E-04
(PID.TID 0000.0001) %MON vort_p_mean                  =   1.3285404709512E-14
(PID.TID 0000.0001) %MON vort_p_sd                    =   1.1052251842842E-04
(PID.TID 0000.0001) %MON surfExpan_theta_mean         =  -3.9465842741898E+00
(PID.TID 0000.0001) %MON surfExpan_salt_mean          =   0.0000000000000E+00
(PID.TID 0000.0001) %MON surfExpan_Heat_mean          =  -3.9803512844103E+02
(PID.TID 0000.0001) %MON En_Budget_T2PE_mean          =   1.0858605836444E+02
(PID.TID 0000.0001) // =======================================================
(PID.TID 0000.0001) // End MONITOR dynamic field statistics
(PID.TID 0000.0001) // =======================================================
 cg2d: Sum(rhs),rhsMax =   1.15185638804860E-15  8.71578060600886E+02
(PID.TID 0000.0001)                    cg2d_init_res =    1.31214030586358E+00
(PID.TID 0000.0001)                       cg2d_iters =    17
(PID.TID 0000.0001)                         cg2d_res =    6.51539992783044E-14
(PID.TID 0000.0001) // =======================================================
(PID.TID 0000.0001) // Begin MONITOR dynamic field statistics
(PID.TID 0000.0001) // =======================================================
(PID.TID 0000.0001) %MON time_tsnumber                =                     5
(PID.TID 0000.0001) %MON time_secondsf                =   6.0000000000000E+03
(PID.TID 0000.0001) %MON dynstat_eta_max              =   1.8890003321065E+03
(PID.TID 0000.0001) %MON dynstat_eta_min              =  -1.2560243582907E+03
(PID.TID 0000.0001) %MON dynstat_eta_mean             =   6.0999548951963E-15
(PID.TID 0000.0001) %MON dynstat_eta_sd               =   1.0127026151369E+03
(PID.TID 0000.0001) %MON dynstat_eta_del2             =   3.6962929659115E+00
(PID.TID 0000.0001) %MON dynstat_uvel_max             =   6.1544675449576E+00
(PID.TID 0000.0001) %MON dynstat_uvel_min             =  -1.8651685946415E-01
(PID.TID 0000.0001) %MON dynstat_uvel_mean            =   1.6817335261479E+00
(PID.TID 0000.0001) %MON dynstat_uvel_sd              =   1.7094971377259E+00
(PID.TID 0000.0001) %MON dynstat_uvel_del2            =   1.5548429255399E-02
(PID.TID 0000.0001) %MON dynstat_vvel_max             =   2.1567476136927E+01
(PID.TID 0000.0001) %MON dynstat_vvel_min             =  -2.1567476191778E+01
(PID.TID 0000.0001) %MON dynstat_vvel_mean            =  -1.2246544084892E-06
(PID.TID 0000.0001) %MON dynstat_vvel_sd              =   8.3873322502822E+00
(PID.TID 0000.0001) %MON dynstat_vvel_del2            =   3.5367682171407E-02
(PID.TID 0000.0001) %MON dynstat_wvel_max             =   4.7510456041843E-01
(PID.TID 0000.0001) %MON dynstat_wvel_min             =  -3.2874760552247E-01
(PID.TID 0000.0001) %MON dynstat_wvel_mean            =   7.5699396380448E-19
(PID.TID 0000.0001) %MON dynstat_wvel_sd              =   2.1261943097396E-01
(PID.TID 0000.0001) %MON dynstat_wvel_del2            =   1.6156823361252E-03
(PID.TID 0000.0001) %MON dynstat_theta_max            =   4.2224749969091E+02
(PID.TID 0000.0001) %MON dynstat_theta_min            =   2.5503591339804E+02
(PID.TID 0000.0001) %MON dynstat_theta_mean           =   3.1888226664016E+02
(PID.TID 0000.0001) %MON dynstat_theta_sd             =   4.5517530227566E+01
(PID.TID 0000.0001) %MON dynstat_theta_del2           =   4.7263986763407E-02
(PID.TID 0000.0001) %MON dynstat_salt_max             =   0.0000000000000E+00
(PID.TID 0000.0001) %MON dynstat_salt_min             =   0.0000000000000E+00
(PID.TID 0000.0001) %MON dynstat_salt_mean            =   0.0000000000000E+00
(PID.TID 0000.0001) %MON dynstat_salt_sd              =   0.0000000000000E+00
(PID.TID 0000.0001) %MON dynstat_salt_del2            =   0.0000000000000E+00
(PID.TID 0000.0001) %MON advcfl_uvel_max              =   2.3232540497295E-06
(PID.TID 0000.0001) %MON advcfl_vvel_max              =   8.2769673547270E-02
(PID.TID 0000.0001) %MON advcfl_wvel_max              =   1.1353004335358E-01
(PID.TID 0000.0001) %MON advcfl_W_hf_max              =   1.1402509450042E-01
(PID.TID 0000.0001) %MON pe_b_mean                    =   5.1278329335253E+00
(PID.TID 0000.0001) %MON ke_max                       =   4.1593071900742E+05
(PID.TID 0000.0001) %MON ke_mean                      =   3.8042200821182E+01
(PID.TID 0000.0001) %MON ke_vol                       =   1.7486817826145E+22
(PID.TID 0000.0001) %MON vort_r_min                   =  -8.6231889386537E-02
(PID.TID 0000.0001) %MON vort_r_max                   =   8.6227715472923E-02
(PID.TID 0000.0001) %MON vort_a_mean                  =   1.1467415612569E-14
(PID.TID 0000.0001) %MON vort_a_sd                    =   1.3862110928495E-04
(PID.TID 0000.0001) %MON vort_p_mean                  =   1.1467424669854E-14
(PID.TID 0000.0001) %MON vort_p_sd                    =   1.3862110928495E-04
(PID.TID 0000.0001) %MON surfExpan_theta_mean         =  -4.6074951532663E+00
(PID.TID 0000.0001) %MON surfExpan_salt_mean          =   0.0000000000000E+00
(PID.TID 0000.0001) %MON surfExpan_Heat_mean          =  -4.6469169228579E+02
(PID.TID 0000.0001) %MON En_Budget_T2PE_mean          =   1.2705886144975E+02
(PID.TID 0000.0001) // =======================================================
(PID.TID 0000.0001) // End MONITOR dynamic field statistics
(PID.TID 0000.0001) // =======================================================
 cg2d: Sum(rhs),rhsMax =  -1.73472347597681E-16  1.17463757357311E+03
(PID.TID 0000.0001)                    cg2d_init_res =    1.07483844322023E+00
(PID.TID 0000.0001)                       cg2d_iters =    17
(PID.TID 0000.0001)                         cg2d_res =    4.83571292946550E-14
(PID.TID 0000.0001) // =======================================================
(PID.TID 0000.0001) // Begin MONITOR dynamic field statistics
(PID.TID 0000.0001) // =======================================================
(PID.TID 0000.0001) %MON time_tsnumber                =                     6
(PID.TID 0000.0001) %MON time_secondsf                =   7.2000000000000E+03
(PID.TID 0000.0001) %MON dynstat_eta_max              =   2.4997621256195E+03
(PID.TID 0000.0001) %MON dynstat_eta_min              =  -1.6915056491018E+03
(PID.TID 0000.0001) %MON dynstat_eta_mean             =   4.4728220295780E-14
(PID.TID 0000.0001) %MON dynstat_eta_sd               =   1.3563939998297E+03
(PID.TID 0000.0001) %MON dynstat_eta_del2             =   4.2695654148021E+00
(PID.TID 0000.0001) %MON dynstat_uvel_max             =   8.6004656805694E+00
(PID.TID 0000.0001) %MON dynstat_uvel_min             =  -3.6890561832053E-01
(PID.TID 0000.0001) %MON dynstat_uvel_mean            =   2.3473627712931E+00
(PID.TID 0000.0001) %MON dynstat_uvel_sd              =   2.4231953292176E+00
(PID.TID 0000.0001) %MON dynstat_uvel_del2            =   2.0770993851919E-02
(PID.TID 0000.0001) %MON dynstat_vvel_max             =   2.4351166815467E+01
(PID.TID 0000.0001) %MON dynstat_vvel_min             =  -2.4351166975029E+01
(PID.TID 0000.0001) %MON dynstat_vvel_mean            =  -1.0350952196249E-06
(PID.TID 0000.0001) %MON dynstat_vvel_sd              =   9.4576618299970E+00
(PID.TID 0000.0001) %MON dynstat_vvel_del2            =   3.6062991566940E-02
(PID.TID 0000.0001) %MON dynstat_wvel_max             =   5.1339149726903E-01
(PID.TID 0000.0001) %MON dynstat_wvel_min             =  -3.6907331895985E-01
(PID.TID 0000.0001) %MON dynstat_wvel_mean            =   2.5358667486410E-18
(PID.TID 0000.0001) %MON dynstat_wvel_sd              =   2.3810219031554E-01
(PID.TID 0000.0001) %MON dynstat_wvel_del2            =   1.4839440002734E-03
(PID.TID 0000.0001) %MON dynstat_theta_max            =   4.2283844408209E+02
(PID.TID 0000.0001) %MON dynstat_theta_min            =   2.5503649984868E+02
(PID.TID 0000.0001) %MON dynstat_theta_mean           =   3.1894682939027E+02
(PID.TID 0000.0001) %MON dynstat_theta_sd             =   4.5477572491737E+01
(PID.TID 0000.0001) %MON dynstat_theta_del2           =   4.7260283036513E-02
(PID.TID 0000.0001) %MON dynstat_salt_max             =   0.0000000000000E+00
(PID.TID 0000.0001) %MON dynstat_salt_min             =   0.0000000000000E+00
(PID.TID 0000.0001) %MON dynstat_salt_mean            =   0.0000000000000E+00
(PID.TID 0000.0001) %MON dynstat_salt_sd              =   0.0000000000000E+00
(PID.TID 0000.0001) %MON dynstat_salt_del2            =   0.0000000000000E+00
(PID.TID 0000.0001) %MON advcfl_uvel_max              =   3.2763633564948E-06
(PID.TID 0000.0001) %MON advcfl_vvel_max              =   9.3452665629306E-02
(PID.TID 0000.0001) %MON advcfl_wvel_max              =   1.2215337699724E-01
(PID.TID 0000.0001) %MON advcfl_W_hf_max              =   1.2321395934457E-01
(PID.TID 0000.0001) %MON pe_b_mean                    =   9.1990234138696E+00
(PID.TID 0000.0001) %MON ke_max                       =   8.1208791863972E+05
(PID.TID 0000.0001) %MON ke_mean                      =   5.0406268076533E+01
(PID.TID 0000.0001) %MON ke_vol                       =   1.7486817826145E+22
(PID.TID 0000.0001) %MON vort_r_min                   =  -1.2071592911898E-01
(PID.TID 0000.0001) %MON vort_r_max                   =   1.2071168223456E-01
(PID.TID 0000.0001) %MON vort_a_mean                  =   6.2048498669691E-15
(PID.TID 0000.0001) %MON vort_a_sd                    =   1.7554373354141E-04
(PID.TID 0000.0001) %MON vort_p_mean                  =   6.2048429754405E-15
(PID.TID 0000.0001) %MON vort_p_sd                    =   1.7554373354141E-04
(PID.TID 0000.0001) %MON surfExpan_theta_mean         =  -5.0893933110677E+00
(PID.TID 0000.0001) %MON surfExpan_salt_mean          =   0.0000000000000E+00
(PID.TID 0000.0001) %MON surfExpan_Heat_mean          =  -5.1329382055920E+02
(PID.TID 0000.0001) %MON En_Budget_T2PE_mean          =   1.4099764710899E+02
(PID.TID 0000.0001) // =======================================================
(PID.TID 0000.0001) // End MONITOR dynamic field statistics
(PID.TID 0000.0001) // =======================================================
 cg2d: Sum(rhs),rhsMax =  -5.81479309147426E-15  1.49858166126970E+03
(PID.TID 0000.0001)                    cg2d_init_res =    8.91221164836723E-01
(PID.TID 0000.0001)                       cg2d_iters =    17
(PID.TID 0000.0001)                         cg2d_res =    3.35256859892386E-14
(PID.TID 0000.0001) // =======================================================
(PID.TID 0000.0001) // Begin MONITOR dynamic field statistics
(PID.TID 0000.0001) // =======================================================
(PID.TID 0000.0001) %MON time_tsnumber                =                     7
(PID.TID 0000.0001) %MON time_secondsf                =   8.4000000000000E+03
(PID.TID 0000.0001) %MON dynstat_eta_max              =   3.1262777664685E+03
(PID.TID 0000.0001) %MON dynstat_eta_min              =  -2.1561100331700E+03
(PID.TID 0000.0001) %MON dynstat_eta_mean             =  -6.4490068531159E-14
(PID.TID 0000.0001) %MON dynstat_eta_sd               =   1.7201581895665E+03
(PID.TID 0000.0001) %MON dynstat_eta_del2             =   5.1193896261080E+00
(PID.TID 0000.0001) %MON dynstat_uvel_max             =   1.1278497210933E+01
(PID.TID 0000.0001) %MON dynstat_uvel_min             =  -6.3493936785760E-01
(PID.TID 0000.0001) %MON dynstat_uvel_mean            =   3.0654523058221E+00
(PID.TID 0000.0001) %MON dynstat_uvel_sd              =   3.2201772111409E+00
(PID.TID 0000.0001) %MON dynstat_uvel_del2            =   2.6015248650985E-02
(PID.TID 0000.0001) %MON dynstat_vvel_max             =   2.6475554239387E+01
(PID.TID 0000.0001) %MON dynstat_vvel_min             =  -2.6475554624338E+01
(PID.TID 0000.0001) %MON dynstat_vvel_mean            =  -8.3583116468739E-07
(PID.TID 0000.0001) %MON dynstat_vvel_sd              =   1.0265792016020E+01
(PID.TID 0000.0001) %MON dynstat_vvel_del2            =   3.6544133800830E-02
(PID.TID 0000.0001) %MON dynstat_wvel_max             =   5.2921781495401E-01
(PID.TID 0000.0001) %MON dynstat_wvel_min             =  -3.9736250599884E-01
(PID.TID 0000.0001) %MON dynstat_wvel_mean            =   9.0870863156926E-19
(PID.TID 0000.0001) %MON dynstat_wvel_sd              =   2.5652803541379E-01
(PID.TID 0000.0001) %MON dynstat_wvel_del2            =   1.4149624054905E-03
(PID.TID 0000.0001) %MON dynstat_theta_max            =   4.2350902294240E+02
(PID.TID 0000.0001) %MON dynstat_theta_min            =   2.5503752248838E+02
(PID.TID 0000.0001) %MON dynstat_theta_mean           =   3.1901347392416E+02
(PID.TID 0000.0001) %MON dynstat_theta_sd             =   4.5436086067909E+01
(PID.TID 0000.0001) %MON dynstat_theta_del2           =   4.7000357180719E-02
(PID.TID 0000.0001) %MON dynstat_salt_max             =   0.0000000000000E+00
(PID.TID 0000.0001) %MON dynstat_salt_min             =   0.0000000000000E+00
(PID.TID 0000.0001) %MON dynstat_salt_mean            =   0.0000000000000E+00
(PID.TID 0000.0001) %MON dynstat_salt_sd              =   0.0000000000000E+00
(PID.TID 0000.0001) %MON dynstat_salt_del2            =   0.0000000000000E+00
(PID.TID 0000.0001) %MON advcfl_uvel_max              =   4.3179208613609E-06
(PID.TID 0000.0001) %MON advcfl_vvel_max              =   1.0160544487235E-01
(PID.TID 0000.0001) %MON advcfl_wvel_max              =   1.2530402623938E-01
(PID.TID 0000.0001) %MON advcfl_W_hf_max              =   1.2701227558896E-01
(PID.TID 0000.0001) %MON pe_b_mean                    =   1.4794720985663E+01
(PID.TID 0000.0001) %MON ke_max                       =   1.3964166452200E+06
(PID.TID 0000.0001) %MON ke_mean                      =   6.2566923649064E+01
(PID.TID 0000.0001) %MON ke_vol                       =   1.7486817826145E+22
(PID.TID 0000.0001) %MON vort_r_min                   =  -1.5795284750438E-01
(PID.TID 0000.0001) %MON vort_r_max                   =   1.5794869072677E-01
(PID.TID 0000.0001) %MON vort_a_mean                  =   6.4945332957943E-16
(PID.TID 0000.0001) %MON vort_a_sd                    =   2.1895757369449E-04
(PID.TID 0000.0001) %MON vort_p_mean                  =   6.4945148884669E-16
(PID.TID 0000.0001) %MON vort_p_sd                    =   2.1895757369449E-04
(PID.TID 0000.0001) %MON surfExpan_theta_mean         =  -5.3791329953872E+00
(PID.TID 0000.0001) %MON surfExpan_salt_mean          =   0.0000000000000E+00
(PID.TID 0000.0001) %MON surfExpan_Heat_mean          =  -5.4251569052326E+02
(PID.TID 0000.0001) %MON En_Budget_T2PE_mean          =   1.5020528813922E+02
(PID.TID 0000.0001) // =======================================================
(PID.TID 0000.0001) // End MONITOR dynamic field statistics
(PID.TID 0000.0001) // =======================================================
 cg2d: Sum(rhs),rhsMax =  -3.32373017997156E-15  1.83164888987740E+03
(PID.TID 0000.0001)                    cg2d_init_res =    7.43136391328543E-01
(PID.TID 0000.0001)                       cg2d_iters =    17
(PID.TID 0000.0001)                         cg2d_res =    1.98896430204936E-14
(PID.TID 0000.0001) // =======================================================
(PID.TID 0000.0001) // Begin MONITOR dynamic field statistics
(PID.TID 0000.0001) // =======================================================
(PID.TID 0000.0001) %MON time_tsnumber                =                     8
(PID.TID 0000.0001) %MON time_secondsf                =   9.6000000000000E+03
(PID.TID 0000.0001) %MON dynstat_eta_max              =   3.7434793570756E+03
(PID.TID 0000.0001) %MON dynstat_eta_min              =  -2.6328837636521E+03
(PID.TID 0000.0001) %MON dynstat_eta_mean             =   1.6294459222534E-14
(PID.TID 0000.0001) %MON dynstat_eta_sd               =   2.0907970181820E+03
(PID.TID 0000.0001) %MON dynstat_eta_del2             =   5.9697926576321E+00
(PID.TID 0000.0001) %MON dynstat_uvel_max             =   1.4117347775117E+01
(PID.TID 0000.0001) %MON dynstat_uvel_min             =  -1.0001353721131E+00
(PID.TID 0000.0001) %MON dynstat_uvel_mean            =   3.8097560048802E+00
(PID.TID 0000.0001) %MON dynstat_uvel_sd              =   4.0811553396024E+00
(PID.TID 0000.0001) %MON dynstat_uvel_del2            =   3.1304337177120E-02
(PID.TID 0000.0001) %MON dynstat_vvel_max             =   2.7915329833996E+01
(PID.TID 0000.0001) %MON dynstat_vvel_min             =  -2.7915330626531E+01
(PID.TID 0000.0001) %MON dynstat_vvel_mean            =  -6.3632341425732E-07
(PID.TID 0000.0001) %MON dynstat_vvel_sd              =   1.0807281130849E+01
(PID.TID 0000.0001) %MON dynstat_vvel_del2            =   3.6946412510313E-02
(PID.TID 0000.0001) %MON dynstat_wvel_max             =   5.2416931457888E-01
(PID.TID 0000.0001) %MON dynstat_wvel_min             =  -4.1270451777700E-01
(PID.TID 0000.0001) %MON dynstat_wvel_mean            =   7.0857428622226E-19
(PID.TID 0000.0001) %MON dynstat_wvel_sd              =   2.6764380545088E-01
(PID.TID 0000.0001) %MON dynstat_wvel_del2            =   1.3819724050644E-03
(PID.TID 0000.0001) %MON dynstat_theta_max            =   4.2420420404298E+02
(PID.TID 0000.0001) %MON dynstat_theta_min            =   2.5503903282265E+02
(PID.TID 0000.0001) %MON dynstat_theta_mean           =   3.1907976940534E+02
(PID.TID 0000.0001) %MON dynstat_theta_sd             =   4.5394600560252E+01
(PID.TID 0000.0001) %MON dynstat_theta_del2           =   4.7163749301108E-02
(PID.TID 0000.0001) %MON dynstat_salt_max             =   0.0000000000000E+00
(PID.TID 0000.0001) %MON dynstat_salt_min             =   0.0000000000000E+00
(PID.TID 0000.0001) %MON dynstat_salt_mean            =   0.0000000000000E+00
(PID.TID 0000.0001) %MON dynstat_salt_sd              =   0.0000000000000E+00
(PID.TID 0000.0001) %MON dynstat_salt_del2            =   0.0000000000000E+00
(PID.TID 0000.0001) %MON advcfl_uvel_max              =   5.4104065720041E-06
(PID.TID 0000.0001) %MON advcfl_vvel_max              =   1.0713088459571E-01
(PID.TID 0000.0001) %MON advcfl_wvel_max              =   1.2344101420447E-01
(PID.TID 0000.0001) %MON advcfl_W_hf_max              =   1.2580063549893E-01
(PID.TID 0000.0001) %MON pe_b_mean                    =   2.1857160856194E+01
(PID.TID 0000.0001) %MON ke_max                       =   2.1877092226258E+06
(PID.TID 0000.0001) %MON ke_mean                      =   7.3973535627661E+01
(PID.TID 0000.0001) %MON ke_vol                       =   1.7486817826145E+22
(PID.TID 0000.0001) %MON vort_r_min                   =  -1.9655182310652E-01
(PID.TID 0000.0001) %MON vort_r_max                   =   1.9654784698572E-01
(PID.TID 0000.0001) %MON vort_a_mean                  =  -4.7262649869886E-15
(PID.TID 0000.0001) %MON vort_a_sd                    =   2.6670438948094E-04
(PID.TID 0000.0001) %MON vort_p_mean                  =  -4.7262690630543E-15
(PID.TID 0000.0001) %MON vort_p_sd                    =   2.6670438948094E-04
(PID.TID 0000.0001) %MON surfExpan_theta_mean         =  -5.4704858597642E+00
(PID.TID 0000.0001) %MON surfExpan_salt_mean          =   0.0000000000000E+00
(PID.TID 0000.0001) %MON surfExpan_Heat_mean          =  -5.5172913855313E+02
(PID.TID 0000.0001) %MON En_Budget_T2PE_mean          =   1.5467271554818E+02
(PID.TID 0000.0001) // =======================================================
(PID.TID 0000.0001) // End MONITOR dynamic field statistics
(PID.TID 0000.0001) // =======================================================
 cg2d: Sum(rhs),rhsMax =   1.38777878078145E-15  2.16161545458411E+03
(PID.TID 0000.0001)                    cg2d_init_res =    6.19717452377705E-01
(PID.TID 0000.0001)                       cg2d_iters =    17
(PID.TID 0000.0001)                         cg2d_res =    1.77758377219125E-14
(PID.TID 0000.0001) // =======================================================
(PID.TID 0000.0001) // Begin MONITOR dynamic field statistics
(PID.TID 0000.0001) // =======================================================
(PID.TID 0000.0001) %MON time_tsnumber                =                     9
(PID.TID 0000.0001) %MON time_secondsf                =   1.0800000000000E+04
(PID.TID 0000.0001) %MON dynstat_eta_max              =   4.3298343077026E+03
(PID.TID 0000.0001) %MON dynstat_eta_min              =  -3.1044711505875E+03
(PID.TID 0000.0001) %MON dynstat_eta_mean             =  -2.8195282006245E-14
(PID.TID 0000.0001) %MON dynstat_eta_sd               =   2.4550952753388E+03
(PID.TID 0000.0001) %MON dynstat_eta_del2             =   6.8144281934101E+00
(PID.TID 0000.0001) %MON dynstat_uvel_max             =   1.7045337328415E+01
(PID.TID 0000.0001) %MON dynstat_uvel_min             =  -1.4793090106792E+00
(PID.TID 0000.0001) %MON dynstat_uvel_mean            =   4.5533568070431E+00
(PID.TID 0000.0001) %MON dynstat_uvel_sd              =   4.9855344474373E+00
(PID.TID 0000.0001) %MON dynstat_uvel_del2            =   3.6655816728965E-02
(PID.TID 0000.0001) %MON dynstat_vvel_max             =   2.8780894232180E+01
(PID.TID 0000.0001) %MON dynstat_vvel_min             =  -2.8780895169574E+01
(PID.TID 0000.0001) %MON dynstat_vvel_mean            =  -4.4412913600597E-07
(PID.TID 0000.0001) %MON dynstat_vvel_sd              =   1.1089992079950E+01
(PID.TID 0000.0001) %MON dynstat_vvel_del2            =   3.7449908163679E-02
(PID.TID 0000.0001) %MON dynstat_wvel_max             =   5.0136018095969E-01
(PID.TID 0000.0001) %MON dynstat_wvel_min             =  -4.2656620948214E-01
(PID.TID 0000.0001) %MON dynstat_wvel_mean            =   1.4732526098306E-18
(PID.TID 0000.0001) %MON dynstat_wvel_sd              =   2.7148173845202E-01
(PID.TID 0000.0001) %MON dynstat_wvel_del2            =   1.3677541968325E-03
(PID.TID 0000.0001) %MON dynstat_theta_max            =   4.2484926064054E+02
(PID.TID 0000.0001) %MON dynstat_theta_min            =   2.5504100024181E+02
(PID.TID 0000.0001) %MON dynstat_theta_mean           =   3.1914334655657E+02
(PID.TID 0000.0001) %MON dynstat_theta_sd             =   4.5354647752337E+01
(PID.TID 0000.0001) %MON dynstat_theta_del2           =   4.7210108118459E-02
(PID.TID 0000.0001) %MON dynstat_salt_max             =   0.0000000000000E+00
(PID.TID 0000.0001) %MON dynstat_salt_min             =   0.0000000000000E+00
(PID.TID 0000.0001) %MON dynstat_salt_mean            =   0.0000000000000E+00
(PID.TID 0000.0001) %MON dynstat_salt_sd              =   0.0000000000000E+00
(PID.TID 0000.0001) %MON dynstat_salt_del2            =   0.0000000000000E+00
(PID.TID 0000.0001) %MON advcfl_uvel_max              =   6.5150793786694E-06
(PID.TID 0000.0001) %MON advcfl_vvel_max              =   1.1045266847180E-01
(PID.TID 0000.0001) %MON advcfl_wvel_max              =   1.1781822382362E-01
(PID.TID 0000.0001) %MON advcfl_W_hf_max              =   1.2032644343033E-01
(PID.TID 0000.0001) %MON pe_b_mean                    =   3.0137464054954E+01
(PID.TID 0000.0001) %MON ke_max                       =   3.1891516695064E+06
(PID.TID 0000.0001) %MON ke_mean                      =   8.4278208481199E+01
(PID.TID 0000.0001) %MON ke_vol                       =   1.7486817826145E+22
(PID.TID 0000.0001) %MON vort_r_min                   =  -2.3511885680470E-01
(PID.TID 0000.0001) %MON vort_r_max                   =   2.3511511318090E-01
(PID.TID 0000.0001) %MON vort_a_mean                  =  -1.0038780211639E-14
(PID.TID 0000.0001) %MON vort_a_sd                    =   3.1686526114046E-04
(PID.TID 0000.0001) %MON vort_p_mean                  =  -1.0038767888101E-14
(PID.TID 0000.0001) %MON vort_p_sd                    =   3.1686526114046E-04
(PID.TID 0000.0001) %MON surfExpan_theta_mean         =  -5.3642601538323E+00
(PID.TID 0000.0001) %MON surfExpan_salt_mean          =   0.0000000000000E+00
(PID.TID 0000.0001) %MON surfExpan_Heat_mean          =  -5.4101568115129E+02
(PID.TID 0000.0001) %MON En_Budget_T2PE_mean          =   1.5456345868269E+02
(PID.TID 0000.0001) // =======================================================
(PID.TID 0000.0001) // End MONITOR dynamic field statistics
(PID.TID 0000.0001) // =======================================================
 cg2d: Sum(rhs),rhsMax =  -1.63064006741820E-15  2.47650463793199E+03
(PID.TID 0000.0001)                    cg2d_init_res =    5.13984311444680E-01
(PID.TID 0000.0001)                       cg2d_iters =    17
(PID.TID 0000.0001)                         cg2d_res =    1.79139354527618E-14
(PID.TID 0000.0001) // =======================================================
(PID.TID 0000.0001) // Begin MONITOR dynamic field statistics
(PID.TID 0000.0001) // =======================================================
(PID.TID 0000.0001) %MON time_tsnumber                =                    10
(PID.TID 0000.0001) %MON time_secondsf                =   1.2000000000000E+04
(PID.TID 0000.0001) %MON dynstat_eta_max              =   4.8674797442194E+03
(PID.TID 0000.0001) %MON dynstat_eta_min              =  -3.5540859490691E+03
(PID.TID 0000.0001) %MON dynstat_eta_mean             =  -2.1622102074780E-14
(PID.TID 0000.0001) %MON dynstat_eta_sd               =   2.8002961794602E+03
(PID.TID 0000.0001) %MON dynstat_eta_del2             =   7.6443051608358E+00
(PID.TID 0000.0001) %MON dynstat_uvel_max             =   1.9991772767661E+01
(PID.TID 0000.0001) %MON dynstat_uvel_min             =  -2.0855474163525E+00
(PID.TID 0000.0001) %MON dynstat_uvel_mean            =   5.2695872468387E+00
(PID.TID 0000.0001) %MON dynstat_uvel_sd              =   5.9121514524483E+00
(PID.TID 0000.0001) %MON dynstat_uvel_del2            =   4.1814043067308E-02
(PID.TID 0000.0001) %MON dynstat_vvel_max             =   2.9178771848152E+01
(PID.TID 0000.0001) %MON dynstat_vvel_min             =  -2.9178773420067E+01
(PID.TID 0000.0001) %MON dynstat_vvel_mean            =  -2.6630517769587E-07
(PID.TID 0000.0001) %MON dynstat_vvel_sd              =   1.1134788544059E+01
(PID.TID 0000.0001) %MON dynstat_vvel_del2            =   3.8286156690890E-02
(PID.TID 0000.0001) %MON dynstat_wvel_max             =   4.7179215239367E-01
(PID.TID 0000.0001) %MON dynstat_wvel_min             =  -4.3072887068989E-01
(PID.TID 0000.0001) %MON dynstat_wvel_mean            =   3.9791228248465E-18
(PID.TID 0000.0001) %MON dynstat_wvel_sd              =   2.6838409222105E-01
(PID.TID 0000.0001) %MON dynstat_wvel_del2            =   1.3995507959217E-03
(PID.TID 0000.0001) %MON dynstat_theta_max            =   4.2545066046778E+02
(PID.TID 0000.0001) %MON dynstat_theta_min            =   2.5504330447465E+02
(PID.TID 0000.0001) %MON dynstat_theta_mean           =   3.1920198051389E+02
(PID.TID 0000.0001) %MON dynstat_theta_sd             =   4.5317702545020E+01
(PID.TID 0000.0001) %MON dynstat_theta_del2           =   4.6966628602754E-02
(PID.TID 0000.0001) %MON dynstat_salt_max             =   0.0000000000000E+00
(PID.TID 0000.0001) %MON dynstat_salt_min             =   0.0000000000000E+00
(PID.TID 0000.0001) %MON dynstat_salt_mean            =   0.0000000000000E+00
(PID.TID 0000.0001) %MON dynstat_salt_sd              =   0.0000000000000E+00
(PID.TID 0000.0001) %MON dynstat_salt_del2            =   0.0000000000000E+00
(PID.TID 0000.0001) %MON advcfl_uvel_max              =   7.5937620807690E-06
(PID.TID 0000.0001) %MON advcfl_vvel_max              =   1.1197960897295E-01
(PID.TID 0000.0001) %MON advcfl_wvel_max              =   1.1035742024380E-01
(PID.TID 0000.0001) %MON advcfl_W_hf_max              =   1.1323011657448E-01
(PID.TID 0000.0001) %MON pe_b_mean                    =   3.9208293463498E+01
(PID.TID 0000.0001) %MON ke_max                       =   4.3868533094123E+06
(PID.TID 0000.0001) %MON ke_mean                      =   9.3343500770265E+01
(PID.TID 0000.0001) %MON ke_vol                       =   1.7486817826145E+22
(PID.TID 0000.0001) %MON vort_r_min                   =  -2.7230217726200E-01
(PID.TID 0000.0001) %MON vort_r_max                   =   2.7229870313275E-01
(PID.TID 0000.0001) %MON vort_a_mean                  =  -1.5243847400918E-14
(PID.TID 0000.0001) %MON vort_a_sd                    =   3.6770382009717E-04
(PID.TID 0000.0001) %MON vort_p_mean                  =  -1.5243863935550E-14
(PID.TID 0000.0001) %MON vort_p_sd                    =   3.6770382009717E-04
(PID.TID 0000.0001) %MON surfExpan_theta_mean         =  -5.0681790198803E+00
(PID.TID 0000.0001) %MON surfExpan_salt_mean          =   0.0000000000000E+00
(PID.TID 0000.0001) %MON surfExpan_Heat_mean          =  -5.1115424047402E+02
(PID.TID 0000.0001) %MON En_Budget_T2PE_mean          =   1.5018886925477E+02
(PID.TID 0000.0001) // =======================================================
(PID.TID 0000.0001) // End MONITOR dynamic field statistics
(PID.TID 0000.0001) // =======================================================
objf_test       314.8    1   31    1 TILE     1   31    1    1
objf_test       629.6    2   31    1 TILE     2   31    1    1
objf_test       944.7    1   32    1 TILE     1   32    1    1
objf_test      1259.8    2   32    1 TILE     2   32    1    1
objf_test      1574.9    1   33    1 TILE     1   33    1    1
objf_test      1890.0    2   33    1 TILE     2   33    1    1
objf_test      2204.8    1   34    1 TILE     1   34    1    1
objf_test      2519.6    2   34    1 TILE     2   34    1    1
objf_test      2833.8    1   35    1 TILE     1   35    1    1
objf_test      3148.0    2   35    1 TILE     2   35    1    1
objf_test      3461.4    1   36    1 TILE     1   36    1    1
objf_test      3774.8    2   36    1 TILE     2   36    1    1
objf_test      4087.0    1   37    1 TILE     1   37    1    1
objf_test      4399.2    2   37    1 TILE     2   37    1    1
objf_test      4710.1    1   38    1 TILE     1   38    1    1
objf_test      5020.9    2   38    1 TILE     2   38    1    1
objf_test      5330.1    1   39    1 TILE     1   39    1    1
objf_test      5639.3    2   39    1 TILE     2   39    1    1
  --> objf_test(bi,bj)   =  626.587786
  --> objf_tracer(bi,bj) =  0.
  --> objf_atl(bi,bj)    =  0.
  local fc =   626.587786
  global fc =   626.587786
(PID.TID 0000.0001)  MDSREADFIELD: opening file: xx_theta.0000000000.001.001.data
 grad-res -------------------------------
 grad-res     0    4    2    2    1   0.626587786E+03 0.626587786E+03 0.626587786E+03
 grad-res     0    4    4    4    0   0.486580779E-07 0.486579665E-07 0.228812455E-05
(PID.TID 0000.0001)       precision_grdchk_result TLM     6.26587786180309E+02     4.86580778805941E-08
 ph-grd  ierr ---------------------------
 ph-grd  ierr =  0, icomp =  4, ichknum =  4
(PID.TID 0000.0001) 
(PID.TID 0000.0001) // =======================================================
(PID.TID 0000.0001) // Gradient check results  >>> START <<<
(PID.TID 0000.0001) // =======================================================
(PID.TID 0000.0001) 
(PID.TID 0000.0001) 
(PID.TID 0000.0001)  EPS =  0.100E-01
(PID.TID 0000.0001) grdchk output:            procId               I        ITILEPOS        JTILEPOS           LAYER            X(I)      X(I)+/-EPS
(PID.TID 0000.0001) grdchk output:                                FC             FC1             FC2 FC1-FC2/(2*EPS)    TLM GRAD(FC)  1-FDGRD/TLMGRD
(PID.TID 0000.0001) grdchk output:                 0               1               1               1               1 0.000000000E+00 -.100000000E-01
(PID.TID 0000.0001) grdchk output:                   0.626587786E+03 0.626587786E+03 0.626587786E+03 0.153647761E-07 0.153706239E-07 0.380455061E-03
(PID.TID 0000.0001) 
(PID.TID 0000.0001) grdchk output:                 0               2               2               1               1 0.000000000E+00 -.100000000E-01
(PID.TID 0000.0001) grdchk output:                   0.626587786E+03 0.626587786E+03 0.626587786E+03 0.153647761E-07 0.153706239E-07 0.380455061E-03
(PID.TID 0000.0001) 
(PID.TID 0000.0001) grdchk output:                 0               3               1               2               1 0.000000000E+00 -.100000000E-01
(PID.TID 0000.0001) grdchk output:                   0.626587786E+03 0.626587786E+03 0.626587786E+03 0.486579665E-07 0.486580779E-07 0.228812454E-05
(PID.TID 0000.0001) 
(PID.TID 0000.0001) grdchk output:                 0               4               2               2               1 0.000000000E+00 -.100000000E-01
(PID.TID 0000.0001) grdchk output:                   0.626587786E+03 0.626587786E+03 0.626587786E+03 0.486579665E-07 0.486580779E-07 0.228812455E-05
(PID.TID 0000.0001) 
(PID.TID 0000.0001) 
(PID.TID 0000.0001) // =======================================================
(PID.TID 0000.0001) // Gradient check results  >>> END <<<
(PID.TID 0000.0001) // =======================================================
(PID.TID 0000.0001) 
(PID.TID 0000.0001) %CHECKPOINT        10 ckptA
(PID.TID 0000.0001)   Seconds in section "ALL                    [THE_MODEL_MAIN]":
(PID.TID 0000.0001)           User time:  1.87999999
(PID.TID 0000.0001)         System time:  0.219999999
(PID.TID 0000.0001)     Wall clock time:  3.3087101
(PID.TID 0000.0001)          No. starts: 1
(PID.TID 0000.0001)           No. stops: 1
(PID.TID 0000.0001)   Seconds in section "INITIALISE_FIXED       [THE_MODEL_MAIN]":
(PID.TID 0000.0001)           User time:  0.0199999996
(PID.TID 0000.0001)         System time:  0.0399999991
(PID.TID 0000.0001)     Wall clock time:  0.273485184
(PID.TID 0000.0001)          No. starts: 1
(PID.TID 0000.0001)           No. stops: 1
(PID.TID 0000.0001)   Seconds in section "CTRL_PACK     [THE_MODEL_MAIN]":
(PID.TID 0000.0001)           User time:  0.00999999978
(PID.TID 0000.0001)         System time:  0.0100000016
(PID.TID 0000.0001)     Wall clock time:  0.0753951073
(PID.TID 0000.0001)          No. starts: 1
(PID.TID 0000.0001)           No. stops: 1
(PID.TID 0000.0001)   Seconds in section "G_THE_MAIN_LOOP           [TANGENT RUN]":
(PID.TID 0000.0001)           User time:  0.160000004
(PID.TID 0000.0001)         System time:  0.00999999791
(PID.TID 0000.0001)     Wall clock time:  0.240307093
(PID.TID 0000.0001)          No. starts: 1
(PID.TID 0000.0001)           No. stops: 1
(PID.TID 0000.0001)   Seconds in section "CTRL_PACK           [THE_MODEL_MAIN]":
(PID.TID 0000.0001)           User time:  0.
(PID.TID 0000.0001)         System time:  0.0100000016
(PID.TID 0000.0001)     Wall clock time:  0.0562682152
(PID.TID 0000.0001)          No. starts: 1
(PID.TID 0000.0001)           No. stops: 1
(PID.TID 0000.0001)   Seconds in section "GRDCHK_MAIN         [THE_MODEL_MAIN]":
(PID.TID 0000.0001)           User time:  1.67999999
(PID.TID 0000.0001)         System time:  0.149999999
(PID.TID 0000.0001)     Wall clock time:  2.63369393
(PID.TID 0000.0001)          No. starts: 1
(PID.TID 0000.0001)           No. stops: 1
(PID.TID 0000.0001)   Seconds in section "ADJOINT SPIN-UP":
(PID.TID 0000.0001)           User time:  0.129999876
(PID.TID 0000.0001)         System time:  0.0700000152
(PID.TID 0000.0001)     Wall clock time:  0.347273111
(PID.TID 0000.0001)          No. starts: 8
(PID.TID 0000.0001)           No. stops: 8
(PID.TID 0000.0001)   Seconds in section "INITIALISE_VARIA    [THE_MAIN_LOOP]":
(PID.TID 0000.0001)           User time:  0.0699999332
(PID.TID 0000.0001)         System time:  0.
(PID.TID 0000.0001)     Wall clock time:  0.099139452
(PID.TID 0000.0001)          No. starts: 8
(PID.TID 0000.0001)           No. stops: 8
(PID.TID 0000.0001)   Seconds in section "MONITOR             [THE_MAIN_LOOP]":
(PID.TID 0000.0001)           User time:  0.00999999046
(PID.TID 0000.0001)         System time:  0.
(PID.TID 0000.0001)     Wall clock time:  0.0153162479
(PID.TID 0000.0001)          No. starts: 8
(PID.TID 0000.0001)           No. stops: 8
(PID.TID 0000.0001)   Seconds in section "DO_THE_MODEL_IO     [THE_MAIN_LOOP]":
(PID.TID 0000.0001)           User time:  0.0399999619
(PID.TID 0000.0001)         System time:  0.0700000152
(PID.TID 0000.0001)     Wall clock time:  0.232077122
(PID.TID 0000.0001)          No. starts: 8
(PID.TID 0000.0001)           No. stops: 8
(PID.TID 0000.0001)   Seconds in section "MAIN LOOP           [THE_MAIN_LOOP]":
(PID.TID 0000.0001)           User time:  0.870000064
(PID.TID 0000.0001)         System time:  0.0299999937
(PID.TID 0000.0001)     Wall clock time:  1.13729
(PID.TID 0000.0001)          No. starts: 8
(PID.TID 0000.0001)           No. stops: 8
(PID.TID 0000.0001)   Seconds in section "FORWARD_STEP        [THE_MAIN_LOOP]":
(PID.TID 0000.0001)           User time:  0.870000064
(PID.TID 0000.0001)         System time:  0.0299999937
(PID.TID 0000.0001)     Wall clock time:  1.13347006
(PID.TID 0000.0001)          No. starts: 80
(PID.TID 0000.0001)           No. stops: 80
(PID.TID 0000.0001)   Seconds in section "EXTERNAL_FIELDS_LOAD[FORWARD_STEP]":
(PID.TID 0000.0001)           User time:  0.
(PID.TID 0000.0001)         System time:  0.
(PID.TID 0000.0001)     Wall clock time:  0.00168514252
(PID.TID 0000.0001)          No. starts: 80
(PID.TID 0000.0001)           No. stops: 80
(PID.TID 0000.0001)   Seconds in section "DO_ATMOSPHERIC_PHYS [FORWARD_STEP]":
(PID.TID 0000.0001)           User time:  0.
(PID.TID 0000.0001)         System time:  0.
(PID.TID 0000.0001)     Wall clock time:  0.00180006027
(PID.TID 0000.0001)          No. starts: 80
(PID.TID 0000.0001)           No. stops: 80
(PID.TID 0000.0001)   Seconds in section "DO_OCEANIC_PHYS     [FORWARD_STEP]":
(PID.TID 0000.0001)           User time:  0.0199999809
(PID.TID 0000.0001)         System time:  0.
(PID.TID 0000.0001)     Wall clock time:  0.0127131939
(PID.TID 0000.0001)          No. starts: 80
(PID.TID 0000.0001)           No. stops: 80
(PID.TID 0000.0001)   Seconds in section "DYNAMICS            [FORWARD_STEP]":
(PID.TID 0000.0001)           User time:  0.22999993
(PID.TID 0000.0001)         System time:  0.
(PID.TID 0000.0001)     Wall clock time:  0.21510458
(PID.TID 0000.0001)          No. starts: 80
(PID.TID 0000.0001)           No. stops: 80
(PID.TID 0000.0001)   Seconds in section "SHAP_FILT           [FORWARD_STEP]":
(PID.TID 0000.0001)           User time:  0.0700000525
(PID.TID 0000.0001)         System time:  0.
(PID.TID 0000.0001)     Wall clock time:  0.0945169926
(PID.TID 0000.0001)          No. starts: 80
(PID.TID 0000.0001)           No. stops: 80
(PID.TID 0000.0001)   Seconds in section "SOLVE_FOR_PRESSURE  [FORWARD_STEP]":
(PID.TID 0000.0001)           User time:  0.060000062
(PID.TID 0000.0001)         System time:  0.
(PID.TID 0000.0001)     Wall clock time:  0.0645637512
(PID.TID 0000.0001)          No. starts: 80
(PID.TID 0000.0001)           No. stops: 80
(PID.TID 0000.0001)   Seconds in section "UV_CORRECTION_STEP  [FORWARD_STEP]":
(PID.TID 0000.0001)           User time:  0.0100000501
(PID.TID 0000.0001)         System time:  0.
(PID.TID 0000.0001)     Wall clock time:  0.015381813
(PID.TID 0000.0001)          No. starts: 80
(PID.TID 0000.0001)           No. stops: 80
(PID.TID 0000.0001)   Seconds in section "BLOCKING_EXCHANGES  [FORWARD_STEP]":
(PID.TID 0000.0001)           User time:  0.0199999809
(PID.TID 0000.0001)         System time:  0.
(PID.TID 0000.0001)     Wall clock time:  0.0196566582
(PID.TID 0000.0001)          No. starts: 160
(PID.TID 0000.0001)           No. stops: 160
(PID.TID 0000.0001)   Seconds in section "THERMODYNAMICS      [FORWARD_STEP]":
(PID.TID 0000.0001)           User time:  0.190000027
(PID.TID 0000.0001)         System time:  0.
(PID.TID 0000.0001)     Wall clock time:  0.159093142
(PID.TID 0000.0001)          No. starts: 80
(PID.TID 0000.0001)           No. stops: 80
(PID.TID 0000.0001)   Seconds in section "TS_CORRECTION_STEP  [FORWARD_STEP]":
(PID.TID 0000.0001)           User time:  0.0599999428
(PID.TID 0000.0001)         System time:  0.
(PID.TID 0000.0001)     Wall clock time:  0.0732975006
(PID.TID 0000.0001)          No. starts: 80
(PID.TID 0000.0001)           No. stops: 80
(PID.TID 0000.0001)   Seconds in section "DO_STATEVARS_DIAGS  [FORWARD_STEP]":
(PID.TID 0000.0001)           User time:  0.0199999809
(PID.TID 0000.0001)         System time:  0.
(PID.TID 0000.0001)     Wall clock time:  0.00687718391
(PID.TID 0000.0001)          No. starts: 80
(PID.TID 0000.0001)           No. stops: 80
(PID.TID 0000.0001)   Seconds in section "MONITOR             [FORWARD_STEP]":
(PID.TID 0000.0001)           User time:  0.149999976
(PID.TID 0000.0001)         System time:  0.
(PID.TID 0000.0001)     Wall clock time:  0.163220882
(PID.TID 0000.0001)          No. starts: 80
(PID.TID 0000.0001)           No. stops: 80
(PID.TID 0000.0001)   Seconds in section "COST_TILE           [FORWARD_STEP]":
(PID.TID 0000.0001)           User time:  0.
(PID.TID 0000.0001)         System time:  0.
(PID.TID 0000.0001)     Wall clock time:  0.00173830986
(PID.TID 0000.0001)          No. starts: 80
(PID.TID 0000.0001)           No. stops: 80
(PID.TID 0000.0001)   Seconds in section "DO_THE_MODEL_IO     [FORWARD_STEP]":
(PID.TID 0000.0001)           User time:  0.00999999046
(PID.TID 0000.0001)         System time:  0.0199999884
(PID.TID 0000.0001)     Wall clock time:  0.272375345
(PID.TID 0000.0001)          No. starts: 80
(PID.TID 0000.0001)           No. stops: 80
(PID.TID 0000.0001)   Seconds in section "WRITE_CHECKPOINT    [FORWARD_STEP]":
(PID.TID 0000.0001)           User time:  0.
(PID.TID 0000.0001)         System time:  0.
(PID.TID 0000.0001)     Wall clock time:  0.00181269646
(PID.TID 0000.0001)          No. starts: 80
(PID.TID 0000.0001)           No. stops: 80
(PID.TID 0000.0001)   Seconds in section "COST_FINAL         [ADJOINT SPIN-DOWN]":
(PID.TID 0000.0001)           User time:  0.
(PID.TID 0000.0001)         System time:  0.
(PID.TID 0000.0001)     Wall clock time:  0.00166249275
(PID.TID 0000.0001)          No. starts: 8
(PID.TID 0000.0001)           No. stops: 8
(PID.TID 0000.0001)   Seconds in section "WRITE_CHECKPOINT       [THE_MODEL_MAIN]":
(PID.TID 0000.0001)           User time:  0.00999999046
(PID.TID 0000.0001)         System time:  0.
(PID.TID 0000.0001)     Wall clock time:  0.0293638706
(PID.TID 0000.0001)          No. starts: 1
(PID.TID 0000.0001)           No. stops: 1
(PID.TID 0000.0001) // ======================================================
(PID.TID 0000.0001) // Tile <-> Tile communication statistics
(PID.TID 0000.0001) // ======================================================
(PID.TID 0000.0001) // o Tile number: 000001
(PID.TID 0000.0001) //         No. X exchanges =              0
(PID.TID 0000.0001) //            Max. X spins =              0
(PID.TID 0000.0001) //            Min. X spins =     10STOP NORMAL END statement executed
00000000
(PID.TID 0000.0001) //          Total. X spins =              0
(PID.TID 0000.0001) //            Avg. X spins =       0.00E+00
(PID.TID 0000.0001) //         No. Y exchanges =              0
(PID.TID 0000.0001) //            Max. Y spins =              0
(PID.TID 0000.0001) //            Min. Y spins =     1000000000
(PID.TID 0000.0001) //          Total. Y spins =              0
(PID.TID 0000.0001) //            Avg. Y spins =       0.00E+00
(PID.TID 0000.0001) // o Thread number: 000001
(PID.TID 0000.0001) //            No. barriers =          69416
(PID.TID 0000.0001) //      Max. barrier spins =              1
(PID.TID 0000.0001) //      Min. barrier spins =              1
(PID.TID 0000.0001) //     Total barrier spins =          69416
(PID.TID 0000.0001) //      Avg. barrier spins =       1.00E+00
