(PID.TID 0000.0001) 
(PID.TID 0000.0001) // ======================================================
(PID.TID 0000.0001) //                      MITgcm UV
(PID.TID 0000.0001) //                      =========
(PID.TID 0000.0001) // ======================================================
(PID.TID 0000.0001) // execution environment starting up...
(PID.TID 0000.0001) 
(PID.TID 0000.0001) // MITgcmUV version:  checkpoint57e_post
(PID.TID 0000.0001) // Build user:        baylor
(PID.TID 0000.0001) // Build host:        TWO.MIT.EDU
(PID.TID 0000.0001) // Build date:        Wed Mar  9 22:13:44 EST 2005
(PID.TID 0000.0001) 
(PID.TID 0000.0001) // =======================================================
(PID.TID 0000.0001) // Execution Environment parameter file "eedata"
(PID.TID 0000.0001) // =======================================================
(PID.TID 0000.0001) ># Example "eedata" file
(PID.TID 0000.0001) ># Lines beginning "#" are comments
(PID.TID 0000.0001) ># nTx - No. threads per process in X
(PID.TID 0000.0001) ># nTy - No. threads per process in Y
(PID.TID 0000.0001) > &EEPARMS
(PID.TID 0000.0001) > /
(PID.TID 0000.0001) ># Note: Some systems use & as the
(PID.TID 0000.0001) ># namelist terminator. Other systems
(PID.TID 0000.0001) ># use a & character (as shown here).
(PID.TID 0000.0001) 
(PID.TID 0000.0001) // =======================================================
(PID.TID 0000.0001) // Computational Grid Specification ( see files "SIZE.h" )
(PID.TID 0000.0001) //                                  ( and "eedata"       )
(PID.TID 0000.0001) // =======================================================
(PID.TID 0000.0001)      nPx =    1 ; /* No. processes in X */
(PID.TID 0000.0001)      nPy =    1 ; /* No. processes in Y */
(PID.TID 0000.0001)      nSx =    1 ; /* No. tiles in X per process */
(PID.TID 0000.0001)      nSy =    1 ; /* No. tiles in Y per process */
(PID.TID 0000.0001)      sNx =   50 ; /* Tile size in X */
(PID.TID 0000.0001)      sNy =   26 ; /* Tile size in Y */
(PID.TID 0000.0001)      OLx =    3 ; /* Tile overlap distance in X */
(PID.TID 0000.0001)      OLy =    3 ; /* Tile overlap distance in Y */
(PID.TID 0000.0001)      nTx =    1 ; /* No. threads in X per process */
(PID.TID 0000.0001)      nTy =    1 ; /* No. threads in Y per process */
(PID.TID 0000.0001)       Nr =   40 ; /* No. levels in the vertical   */
(PID.TID 0000.0001)       nX =   50 ; /* Total domain size in X ( = nPx*nSx*sNx ) */
(PID.TID 0000.0001)       nY =   26 ; /* Total domain size in Y ( = nPy*nSy*sNy ) */
(PID.TID 0000.0001)   nTiles =    1 ; /* Total no. tiles per process ( = nSx*nSy ) */
(PID.TID 0000.0001)   nProcs =    1 ; /* Total no. processes ( = nPx*nPy ) */
(PID.TID 0000.0001) nThreads =    1 ; /* Total no. threads per process ( = nTx*nTy ) */
(PID.TID 0000.0001) usingMPI =    F ; /* Flag used to control whether MPI is in use */
(PID.TID 0000.0001)                   /*  note: To execute a program with MPI calls */
(PID.TID 0000.0001)                   /*  it must be launched appropriately e.g     */
(PID.TID 0000.0001)                   /*  "mpirun -np 64 ......"                    */
(PID.TID 0000.0001) useCoupler=   F ; /* Flag used to control communications with */
(PID.TID 0000.0001)                   /*  other model components, through a coupler */
(PID.TID 0000.0001) 
(PID.TID 0000.0001) // ======================================================
(PID.TID 0000.0001) // Mapping of tiles to threads
(PID.TID 0000.0001) // ======================================================
(PID.TID 0000.0001) // -o- Thread   1, tiles (   1:   1,   1:   1)
(PID.TID 0000.0001) 
(PID.TID 0000.0001) // ======================================================
(PID.TID 0000.0001) // Tile <-> Tile connectvity table
(PID.TID 0000.0001) // ======================================================
(PID.TID 0000.0001) // Tile number: 000001 (process no. = 000001)
(PID.TID 0000.0001) //        WEST: Tile = 000001, Process = 000001, Comm = put
(PID.TID 0000.0001) //                bi = 000001, bj = 000001
(PID.TID 0000.0001) //        EAST: Tile = 000001, Process = 000001, Comm = put
(PID.TID 0000.0001) //                bi = 000001, bj = 000001
(PID.TID 0000.0001) //       SOUTH: Tile = 000001, Process = 000001, Comm = put
(PID.TID 0000.0001) //                bi = 000001, bj = 000001
(PID.TID 0000.0001) //       NORTH: Tile = 000001, Process = 000001, Comm = put
(PID.TID 0000.0001) //                bi = 000001, bj = 000001
(PID.TID 0000.0001) 
(PID.TID 0000.0001) // =======================================================
(PID.TID 0000.0001) // Model parameter file "data"
(PID.TID 0000.0001) // =======================================================
(PID.TID 0000.0001) ># ====================
(PID.TID 0000.0001) ># | Model parameters |
(PID.TID 0000.0001) ># ====================
(PID.TID 0000.0001) >#
(PID.TID 0000.0001) ># Continuous equation parameters
(PID.TID 0000.0001) > &PARM01
(PID.TID 0000.0001) > viscAr=5.E-3,
(PID.TID 0000.0001) ># This is the minimum viscosity used total=viscah+viscleith
(PID.TID 0000.0001) ># Often U*deltaX/2 for grid noise (Griffies and Hallberg,2000)
(PID.TID 0000.0001) > viscAh=3.E1,
(PID.TID 0000.0001) ># This is the standard Leith Viscosity, prop to grad(curl v_h)
(PID.TID 0000.0001) > viscC2leith=5.,
(PID.TID 0000.0001) ># This is an additional Leith Viscosity, prop to grad(div.v_h)
(PID.TID 0000.0001) ># It traps instabilities that have no signal in grad(curl v_h)
(PID.TID 0000.0001) ># viscC2leithD=5.,
(PID.TID 0000.0001) ># These are the minimum viscosities used with Smagorinsky
(PID.TID 0000.0001) ># total=viscastrain+viscsmag, etc.
(PID.TID 0000.0001) ># viscAstrain=3.E1,
(PID.TID 0000.0001) ># viscAtension=3.E1,
(PID.TID 0000.0001) ># This is harmonic Smagorinsky Coefficient
(PID.TID 0000.0001) ># 0.15=value from 3-d turbulence theory;
(PID.TID 0000.0001) ># 3-4=stable oceanic values (Griffies and Hallberg, 2000)
(PID.TID 0000.0001) ># viscC2Smag=4.,
(PID.TID 0000.0001) ># This is the max Viscosity used, be it Smag or Leith, and it scales
(PID.TID 0000.0001) ># with grid size and timestep
(PID.TID 0000.0001) ># Often 0.5 for stability (Griffies and Hallberg,2000)
(PID.TID 0000.0001) > viscAhGridMax=0.5,
(PID.TID 0000.0001) > useFullLeith=.TRUE.,
(PID.TID 0000.0001) > no_slip_sides=.FALSE.,
(PID.TID 0000.0001) > no_slip_bottom=.FALSE.,
(PID.TID 0000.0001) > ivdc_kappa=10.,
(PID.TID 0000.0001) > implicitDiffusion=.TRUE.,
(PID.TID 0000.0001) > implicitViscosity=.TRUE.,
(PID.TID 0000.0001) > f0=7.29e-5,
(PID.TID 0000.0001) > beta=0.E-11,
(PID.TID 0000.0001) > eosType='LINEAR',
(PID.TID 0000.0001) ># Using Temperature as only Active Tracer
(PID.TID 0000.0001) > tAlpha=2.E-4,
(PID.TID 0000.0001) ># Using Salinity as Spice
(PID.TID 0000.0001) > sBeta =0.E-4,
(PID.TID 0000.0001) > saltStepping=.TRUE.,
(PID.TID 0000.0001) > gravity=9.81,
(PID.TID 0000.0001) > rhonil=1035.,
(PID.TID 0000.0001) > implicitFreeSurface=.TRUE.,
(PID.TID 0000.0001) > usejamartwetpoints=.TRUE.,
(PID.TID 0000.0001) > rigidLid=.FALSE.,
(PID.TID 0000.0001) > staggerTimeStep=.TRUE.,
(PID.TID 0000.0001) > readBinaryPrec=64,
(PID.TID 0000.0001) > writeBinaryPrec=64,
(PID.TID 0000.0001) > tempAdvScheme=33,
(PID.TID 0000.0001) > saltAdvScheme=33,
(PID.TID 0000.0001) > nonHydrostatic=.FALSE.,
(PID.TID 0000.0001) > vectorInvariantMomentum=.TRUE.,
(PID.TID 0000.0001) > /
(PID.TID 0000.0001) >
(PID.TID 0000.0001) ># Elliptic solver parameters
(PID.TID 0000.0001) > &PARM02
(PID.TID 0000.0001) > cg2dMaxIters=1000,
(PID.TID 0000.0001) > cg2dTargetResidual=1.E-11,
(PID.TID 0000.0001) > cg3dMaxIters=40,
(PID.TID 0000.0001) > cg3dTargetResidual=1.E-9,
(PID.TID 0000.0001) > /
(PID.TID 0000.0001) >
(PID.TID 0000.0001) ># Time stepping parameters
(PID.TID 0000.0001) > &PARM03
(PID.TID 0000.0001) > niter0=0,
(PID.TID 0000.0001) > endTime=86400.,
(PID.TID 0000.0001) > deltaT=1200.,
(PID.TID 0000.0001) > abEps=0.01,
(PID.TID 0000.0001) > pchkptFreq=43200.,
(PID.TID 0000.0001) > taveFreq=7200.,
(PID.TID 0000.0001) > dumpFreq=7200.,
(PID.TID 0000.0001) > diagFreq=7200.,
(PID.TID 0000.0001) > monitorFreq=1200.,
(PID.TID 0000.0001) > cadjfreq=0.,
(PID.TID 0000.0001) > /
(PID.TID 0000.0001) >
(PID.TID 0000.0001) ># Gridding parameters
(PID.TID 0000.0001) > &PARM04
(PID.TID 0000.0001) > usingCartesianGrid=.TRUE.,
(PID.TID 0000.0001) > usingSphericalPolarGrid=.FALSE.,
(PID.TID 0000.0001) >  delR= 5d0, 5d0, 5d0, 5d0, 5d0,
(PID.TID 0000.0001) >    5d0, 5d0, 5d0, 5d0, 5d0,
(PID.TID 0000.0001) >    5d0, 5d0, 5d0, 5d0, 5d0,
(PID.TID 0000.0001) >    5d0, 5d0, 5d0, 5d0, 5d0,
(PID.TID 0000.0001) >    5d0, 5d0, 5d0, 5d0, 5d0,
(PID.TID 0000.0001) >    5d0, 5d0, 5d0, 5d0, 5d0,
(PID.TID 0000.0001) >    5d0, 5d0, 5d0, 5d0, 5d0,
(PID.TID 0000.0001) >    5d0, 5d0, 5d0, 5d0, 5d0,
(PID.TID 0000.0001) > dxspacing=1d3,
(PID.TID 0000.0001) > dyspacing=1d3,
(PID.TID 0000.0001) > /
(PID.TID 0000.0001) >
(PID.TID 0000.0001) ># Input datasets
(PID.TID 0000.0001) > &PARM05
(PID.TID 0000.0001) > bathyFile='topo_sl.bin',
(PID.TID 0000.0001) > hydrogThetaFile='thetaInitial.bin',
(PID.TID 0000.0001) > hydrogSaltFile='spiceInitial.bin',
(PID.TID 0000.0001) > /
(PID.TID 0000.0001) >
(PID.TID 0000.0001) 
(PID.TID 0000.0001) S/R INI_PARMS ; starts to read PARM01
(PID.TID 0000.0001) S/R INI_PARMS ; read PARM01 : OK
(PID.TID 0000.0001) S/R INI_PARMS ; starts to read PARM02
(PID.TID 0000.0001) S/R INI_PARMS ; read PARM02 : OK
(PID.TID 0000.0001) S/R INI_PARMS ; starts to read PARM03
(PID.TID 0000.0001) S/R INI_PARMS ; read PARM03 : OK
(PID.TID 0000.0001) S/R INI_PARMS ; starts to read PARM04
(PID.TID 0000.0001) S/R INI_PARMS ; read PARM04 : OK
(PID.TID 0000.0001) S/R INI_PARMS ; starts to read PARM05
(PID.TID 0000.0001) S/R INI_PARMS ; read PARM05 : OK
(PID.TID 0000.0001)  PACKAGES_BOOT: opening data.pkg
(PID.TID 0000.0001)  OPEN_COPY_DATA_FILE: opening file data.pkg
(PID.TID 0000.0001) // =======================================================
(PID.TID 0000.0001) // Parameter file "data.pkg"
(PID.TID 0000.0001) // =======================================================
(PID.TID 0000.0001) ># Packages
(PID.TID 0000.0001) > &PACKAGES
(PID.TID 0000.0001) >   useKPP     = .FALSE.,
(PID.TID 0000.0001) >   useMNC     = .TRUE.,
(PID.TID 0000.0001) >   useDIAGNOSTICS= .TRUE.,
(PID.TID 0000.0001) > /
(PID.TID 0000.0001) >
(PID.TID 0000.0001) 
(PID.TID 0000.0001)  PACKAGES_BOOT: finished reading data.pkg
(PID.TID 0000.0001)  MNC_READPARMS: opening file 'data.mnc'
(PID.TID 0000.0001) // =======================================================
(PID.TID 0000.0001) // Parameter file "data.mnc"
(PID.TID 0000.0001) // =======================================================
(PID.TID 0000.0001) ># Example "data.mnc" file
(PID.TID 0000.0001) ># Lines beginning "#" are comments
(PID.TID 0000.0001) > &MNC_01
(PID.TID 0000.0001) ># mnc_echo_gvtypes=.FALSE.,
(PID.TID 0000.0001) ># mnc_use_indir=.FALSE.,
(PID.TID 0000.0001) > mnc_use_outdir=.TRUE.,
(PID.TID 0000.0001) > mnc_outdir_str='input.0_',
(PID.TID 0000.0001) ># mnc_outdir_date=.TRUE.,
(PID.TID 0000.0001) > monitor_mnc=.FALSE.,
(PID.TID 0000.0001) > snapshot_mnc=.TRUE.,
(PID.TID 0000.0001) > timeave_mnc=.TRUE.,
(PID.TID 0000.0001) > pickup_write_mnc=.TRUE.,
(PID.TID 0000.0001) > pickup_read_mnc=.TRUE.,
(PID.TID 0000.0001) > /
(PID.TID 0000.0001) ># Note: Some systems use & as the
(PID.TID 0000.0001) ># namelist terminator. Other systems
(PID.TID 0000.0001) ># use a & character (as shown here).
(PID.TID 0000.0001) 
(PID.TID 0000.0001)  MNC_READPARMS: finished reading data.mnc
(PID.TID 0000.0001)  DIAGNOSTICS_READPARMS: opening data.diagnostics
(PID.TID 0000.0001)  OPEN_COPY_DATA_FILE: opening file data.diagnostics
(PID.TID 0000.0001) // =======================================================
(PID.TID 0000.0001) // Parameter file "data.diagnostics"
(PID.TID 0000.0001) // =======================================================
(PID.TID 0000.0001) ># Diagnostic Package Choices
(PID.TID 0000.0001) >#-----------------
(PID.TID 0000.0001) ># for each output-stream:
(PID.TID 0000.0001) >#  filename(n) : prefix of the output file name (only 8.c long) for outp.stream n
(PID.TID 0000.0001) >#  frequency(n):< 0 : write snap-shot output every multiple of |frequency| (iter)
(PID.TID 0000.0001) >#               > 0 : write time-average output every multiple of frequency (iter)
(PID.TID 0000.0001) >#  levels(:,n) : list of levels to write to file (Notes: declared as REAL)
(PID.TID 0000.0001) >#                 when this entry is missing, select all common levels of this list
(PID.TID 0000.0001) >#  fields(:,n) : list of diagnostics fields (8.c) (see "available_diagnostics" file
(PID.TID 0000.0001) >#                 for the list of all available diag. in this particular config)
(PID.TID 0000.0001) >#-----------------
(PID.TID 0000.0001) > &diagnostics_list
(PID.TID 0000.0001) >  diag_mnc=.TRUE.,
(PID.TID 0000.0001) >  frequency(1) = 72,
(PID.TID 0000.0001) >  fields(1,1) = 'UVELSLT ','VVELSLT ','WVELSLT ',
(PID.TID 0000.0001) >  filename(1) = 'spiceflx',
(PID.TID 0000.0001) >  frequency(2) = 72,
(PID.TID 0000.0001) >  fields(1,2) = 'UVELTH  ','VVELTH ','WVELTH ',
(PID.TID 0000.0001) >  filename(2) = 'thetaflx',
(PID.TID 0000.0001) > /
(PID.TID 0000.0001) >
(PID.TID 0000.0001) 
(PID.TID 0000.0001) -----------------------------------------------------
(PID.TID 0000.0001)  DIAGNOSTICS_READPARMS: active diagnostics summary:
(PID.TID 0000.0001) -----------------------------------------------------
(PID.TID 0000.0001) Creating Output Stream: spiceflx
(PID.TID 0000.0001)  Frequency:  72
(PID.TID 0000.0001)  Levels:    will be set later
(PID.TID 0000.0001)  Fields:    UVELSLT  VVELSLT  WVELSLT
(PID.TID 0000.0001) Creating Output Stream: thetaflx
(PID.TID 0000.0001)  Frequency:  72
(PID.TID 0000.0001)  Levels:    will be set later
(PID.TID 0000.0001)  Fields:    UVELTH   VVELTH   WVELTH
(PID.TID 0000.0001) -----------------------------------------------------
(PID.TID 0000.0001) 
(PID.TID 0000.0001) %MON XC_max                       =   4.9500000000000E+04
(PID.TID 0000.0001) %MON XC_min                       =   5.0000000000000E+02
(PID.TID 0000.0001) %MON XC_mean                      =   2.5000000000000E+04
(PID.TID 0000.0001) %MON XC_sd                        =   1.4430869689662E+04
(PID.TID 0000.0001) %MON XG_max                       =   4.9000000000000E+04
(PID.TID 0000.0001) %MON XG_min                       =   1.0000000000000E+03
(PID.TID 0000.0001) %MON XG_mean                      =   2.5000000000000E+04
(PID.TID 0000.0001) %MON XG_sd                        =   1.4142135623731E+04
(PID.TID 0000.0001) %MON DXC_max                      =   1.0000000000000E+03
(PID.TID 0000.0001) %MON DXC_min                      =   1.0000000000000E+03
(PID.TID 0000.0001) %MON DXC_mean                     =   1.0000000000000E+03
(PID.TID 0000.0001) %MON DXC_sd                       =   0.0000000000000E+00
(PID.TID 0000.0001) %MON DXF_max                      =   1.0000000000000E+03
(PID.TID 0000.0001) %MON DXF_min                      =   1.0000000000000E+03
(PID.TID 0000.0001) %MON DXF_mean                     =   1.0000000000000E+03
(PID.TID 0000.0001) %MON DXF_sd                       =   0.0000000000000E+00
(PID.TID 0000.0001) %MON DXG_max                      =   1.0000000000000E+03
(PID.TID 0000.0001) %MON DXG_min                      =   1.0000000000000E+03
(PID.TID 0000.0001) %MON DXG_mean                     =   1.0000000000000E+03
(PID.TID 0000.0001) %MON DXG_sd                       =   0.0000000000000E+00
(PID.TID 0000.0001) %MON DXV_max                      =   1.0000000000000E+03
(PID.TID 0000.0001) %MON DXV_min                      =   1.0000000000000E+03
(PID.TID 0000.0001) %MON DXV_mean                     =   1.0000000000000E+03
(PID.TID 0000.0001) %MON DXV_sd                       =   0.0000000000000E+00
(PID.TID 0000.0001) %MON YC_max                       =   2.5500000000000E+04
(PID.TID 0000.0001) %MON YC_min                       =   5.0000000000000E+02
(PID.TID 0000.0001) %MON YC_mean                      =   1.3000000000000E+04
(PID.TID 0000.0001) %MON YC_sd                        =   7.5000000000000E+03
(PID.TID 0000.0001) %MON YG_max                       =   2.5000000000000E+04
(PID.TID 0000.0001) %MON YG_min                       =   1.0000000000000E+03
(PID.TID 0000.0001) %MON YG_mean                      =   1.3000000000000E+04
(PID.TID 0000.0001) %MON YG_sd                        =   7.2111025509280E+03
(PID.TID 0000.0001) %MON DYC_max                      =   1.0000000000000E+03
(PID.TID 0000.0001) %MON DYC_min                      =   1.0000000000000E+03
(PID.TID 0000.0001) %MON DYC_mean                     =   1.0000000000000E+03
(PID.TID 0000.0001) %MON DYC_sd                       =   0.0000000000000E+00
(PID.TID 0000.0001) %MON DYF_max                      =   1.0000000000000E+03
(PID.TID 0000.0001) %MON DYF_min                      =   1.0000000000000E+03
(PID.TID 0000.0001) %MON DYF_mean                     =   1.0000000000000E+03
(PID.TID 0000.0001) %MON DYF_sd                       =   0.0000000000000E+00
(PID.TID 0000.0001) %MON DYG_max                      =   1.0000000000000E+03
(PID.TID 0000.0001) %MON DYG_min                      =   1.0000000000000E+03
(PID.TID 0000.0001) %MON DYG_mean                     =   1.0000000000000E+03
(PID.TID 0000.0001) %MON DYG_sd                       =   0.0000000000000E+00
(PID.TID 0000.0001) %MON DYU_max                      =   1.0000000000000E+03
(PID.TID 0000.0001) %MON DYU_min                      =   1.0000000000000E+03
(PID.TID 0000.0001) %MON DYU_mean                     =   1.0000000000000E+03
(PID.TID 0000.0001) %MON DYU_sd                       =   0.0000000000000E+00
(PID.TID 0000.0001) %MON RA_max                       =   1.0000000000000E+06
(PID.TID 0000.0001) %MON RA_min                       =   1.0000000000000E+06
(PID.TID 0000.0001) %MON RA_mean                      =   1.0000000000000E+06
(PID.TID 0000.0001) %MON RA_sd                        =   0.0000000000000E+00
(PID.TID 0000.0001) %MON RAW_max                      =   1.0000000000000E+06
(PID.TID 0000.0001) %MON RAW_min                      =   1.0000000000000E+06
(PID.TID 0000.0001) %MON RAW_mean                     =   1.0000000000000E+06
(PID.TID 0000.0001) %MON RAW_sd                       =   0.0000000000000E+00
(PID.TID 0000.0001) %MON RAS_max                      =   1.0000000000000E+06
(PID.TID 0000.0001) %MON RAS_min                      =   1.0000000000000E+06
(PID.TID 0000.0001) %MON RAS_mean                     =   1.0000000000000E+06
(PID.TID 0000.0001) %MON RAS_sd                       =   0.0000000000000E+00
(PID.TID 0000.0001) %MON RAZ_max                      =   1.0000000000000E+06
(PID.TID 0000.0001) %MON RAZ_min                      =   1.0000000000000E+06
(PID.TID 0000.0001) %MON RAZ_mean                     =   1.0000000000000E+06
(PID.TID 0000.0001) %MON RAZ_sd                       =   0.0000000000000E+00
(PID.TID 0000.0001)  MDSREADFIELD: opening global file: topo_sl.bin
(PID.TID 0000.0001) // =======================================================
(PID.TID 0000.0001) // Field Model R_low (ini_masks_etc) at iteration          1
(PID.TID 0000.0001) // CMIN =         -2.000000000000000E+02
(PID.TID 0000.0001) // CMAX =         -2.000000000000000E+02
(PID.TID 0000.0001) // CINT =          0.000000000000000E+00
(PID.TID 0000.0001) // SYMBOLS (CMIN->CMAX): -abcdefghijklmnopqrstuvwxyz+
(PID.TID 0000.0001) //                  0.0: .
(PID.TID 0000.0001) // RANGE I (Lo:Hi:Step):(  -2:  53:   1)
(PID.TID 0000.0001) // RANGE J (Lo:Hi:Step):(  29:  -2:  -1)
(PID.TID 0000.0001) // RANGE K (Lo:Hi:Step):(   1:   1:   1)
(PID.TID 0000.0001) // =======================================================
(PID.TID 0000.0001) // =======================================================
(PID.TID 0000.0001) // END OF FIELD                                          =
(PID.TID 0000.0001) // =======================================================
(PID.TID 0000.0001) 
(PID.TID 0000.0001) // =======================================================
(PID.TID 0000.0001) // Field Model Ro_surf (ini_masks_etc) at iteration          1
(PID.TID 0000.0001) // CMIN =          1.000000000000000E+32
(PID.TID 0000.0001) // CMAX =         -1.000000000000000E+32
(PID.TID 0000.0001) // CINT =          0.000000000000000E+00
(PID.TID 0000.0001) // SYMBOLS (CMIN->CMAX): -abcdefghijklmnopqrstuvwxyz+
(PID.TID 0000.0001) //                  0.0: .
(PID.TID 0000.0001) // RANGE I (Lo:Hi:Step):(  -2:  53:   1)
(PID.TID 0000.0001) // RANGE J (Lo:Hi:Step):(  29:  -2:  -1)
(PID.TID 0000.0001) // RANGE K (Lo:Hi:Step):(   1:   1:   1)
(PID.TID 0000.0001) // =======================================================
(PID.TID 0000.0001) // =======================================================
(PID.TID 0000.0001) // END OF FIELD                                          =
(PID.TID 0000.0001) // =======================================================
(PID.TID 0000.0001) 
(PID.TID 0000.0001) // =======================================================
(PID.TID 0000.0001) // Field hFacC at iteration          1
(PID.TID 0000.0001) // CMIN =          1.000000000000000E+00
(PID.TID 0000.0001) // CMAX =          1.000000000000000E+00
(PID.TID 0000.0001) // CINT =          0.000000000000000E+00
(PID.TID 0000.0001) // SYMBOLS (CMIN->CMAX): -abcdefghijklmnopqrstuvwxyz+
(PID.TID 0000.0001) //                  0.0: .
(PID.TID 0000.0001) // RANGE I (Lo:Hi:Step):(  -2:  53:   1)
(PID.TID 0000.0001) // RANGE J (Lo:Hi:Step):(  29:  -2:  -1)
(PID.TID 0000.0001) // RANGE K (Lo:Hi:Step):(   1:   1:   1)
(PID.TID 0000.0001) // =======================================================
(PID.TID 0000.0001) // =======================================================
(PID.TID 0000.0001) // END OF FIELD                                          =
(PID.TID 0000.0001) // =======================================================
(PID.TID 0000.0001) 
(PID.TID 0000.0001) // =======================================================
(PID.TID 0000.0001) // Field hFacW at iteration          1
(PID.TID 0000.0001) // CMIN =          1.000000000000000E+00
(PID.TID 0000.0001) // CMAX =          1.000000000000000E+00
(PID.TID 0000.0001) // CINT =          0.000000000000000E+00
(PID.TID 0000.0001) // SYMBOLS (CMIN->CMAX): -abcdefghijklmnopqrstuvwxyz+
(PID.TID 0000.0001) //                  0.0: .
(PID.TID 0000.0001) // RANGE I (Lo:Hi:Step):(  -2:  53:   1)
(PID.TID 0000.0001) // RANGE J (Lo:Hi:Step):(  29:  -2:  -1)
(PID.TID 0000.0001) // RANGE K (Lo:Hi:Step):(   1:   1:   1)
(PID.TID 0000.0001) // =======================================================
(PID.TID 0000.0001) // =======================================================
(PID.TID 0000.0001) // END OF FIELD                                          =
(PID.TID 0000.0001) // =======================================================
(PID.TID 0000.0001) 
(PID.TID 0000.0001) // =======================================================
(PID.TID 0000.0001) // Field hFacS at iteration          1
(PID.TID 0000.0001) // CMIN =          1.000000000000000E+00
(PID.TID 0000.0001) // CMAX =          1.000000000000000E+00
(PID.TID 0000.0001) // CINT =          0.000000000000000E+00
(PID.TID 0000.0001) // SYMBOLS (CMIN->CMAX): -abcdefghijklmnopqrstuvwxyz+
(PID.TID 0000.0001) //                  0.0: .
(PID.TID 0000.0001) // RANGE I (Lo:Hi:Step):(  -2:  53:   1)
(PID.TID 0000.0001) // RANGE J (Lo:Hi:Step):(  29:  -2:  -1)
(PID.TID 0000.0001) // RANGE K (Lo:Hi:Step):(   1:   1:   1)
(PID.TID 0000.0001) // =======================================================
(PID.TID 0000.0001) // =======================================================
(PID.TID 0000.0001) // END OF FIELD                                          =
(PID.TID 0000.0001) // =======================================================
(PID.TID 0000.0001) 
(PID.TID 0000.0001) 
(PID.TID 0000.0001) // ===================================
(PID.TID 0000.0001) // GAD parameters :
(PID.TID 0000.0001) // ===================================
(PID.TID 0000.0001) tempAdvScheme =   /* Temp. Horiz.Advection scheme selector */
(PID.TID 0000.0001)                      33
(PID.TID 0000.0001)     ;
(PID.TID 0000.0001) tempVertAdvScheme =   /* Temp. Vert. Advection scheme selector */
(PID.TID 0000.0001)                      33
(PID.TID 0000.0001)     ;
(PID.TID 0000.0001) tempMultiDimAdvec =   /* use Muti-Dim Advec method for Temp */
(PID.TID 0000.0001)                   T
(PID.TID 0000.0001)     ;
(PID.TID 0000.0001) tempAdamsBashforth =   /* use Adams-Bashforth time-stepping for Temp */
(PID.TID 0000.0001)                   F
(PID.TID 0000.0001)     ;
(PID.TID 0000.0001) saltAdvScheme =   /* Salt. Horiz.advection scheme selector */
(PID.TID 0000.0001)                      33
(PID.TID 0000.0001)     ;
(PID.TID 0000.0001) saltVertAdvScheme =   /* Salt. Vert. Advection scheme selector */
(PID.TID 0000.0001)                      33
(PID.TID 0000.0001)     ;
(PID.TID 0000.0001) saltMultiDimAdvec =   /* use Muti-Dim Advec method for Salt */
(PID.TID 0000.0001)                   T
(PID.TID 0000.0001)     ;
(PID.TID 0000.0001) saltAdamsBashforth =   /* use Adams-Bashforth time-stepping for Salt */
(PID.TID 0000.0001)                   F
(PID.TID 0000.0001)     ;
(PID.TID 0000.0001) // ===================================
(PID.TID 0000.0001) ------------------------------------------------------------
(PID.TID 0000.0001) DIAGNOSTICS_SET_LEVELS: done
(PID.TID 0000.0001)  Total Nb of available Diagnostics: ndiagt= 301
(PID.TID 0000.0001)  write list of available Diagnostics to file: available_diagnostics.log
(PID.TID 0000.0001) SETDIAG: Allocate 40 Levels for Diagnostic # 267 UVELSLT
(PID.TID 0000.0001) SETDIAG: Allocate 40 Levels for Diagnostic # 268 VVELSLT
(PID.TID 0000.0001) SETDIAG: Allocate 40 Levels for Diagnostic # 269 WVELSLT
(PID.TID 0000.0001) SETDIAG: Allocate 40 Levels for Diagnostic # 264 UVELTH
(PID.TID 0000.0001) SETDIAG: Allocate 40 Levels for Diagnostic # 265 VVELTH
(PID.TID 0000.0001) SETDIAG: Allocate 40 Levels for Diagnostic # 266 WVELTH
(PID.TID 0000.0001)   space allocated for all diagnostics:   240 levels
(PID.TID 0000.0001) DIAGNOSTICS_SET_POINTERS: Set levels for Outp.Stream: spiceflx
(PID.TID 0000.0001)  Levels:       1.   2.   3.   4.   5.   6.   7.   8.   9.  10.  11.  12.  13.  14.  15.  16.  17.  18.  19.  20.
(PID.TID 0000.0001)  Levels:      21.  22.  23.  24.  25.  26.  27.  28.  29.  30.  31.  32.  33.  34.  35.  36.  37.  38.  39.  40.
(PID.TID 0000.0001) DIAGNOSTICS_SET_POINTERS: Set levels for Outp.Stream: thetaflx
(PID.TID 0000.0001)  Levels:       1.   2.   3.   4.   5.   6.   7.   8.   9.  10.  11.  12.  13.  14.  15.  16.  17.  18.  19.  20.
(PID.TID 0000.0001)  Levels:      21.  22.  23.  24.  25.  26.  27.  28.  29.  30.  31.  32.  33.  34.  35.  36.  37.  38.  39.  40.
(PID.TID 0000.0001) DIAGNOSTICS_SET_POINTERS: done
(PID.TID 0000.0001) ------------------------------------------------------------
(PID.TID 0000.0001) %MON fCori_max                    =   7.2900000000000E-05
(PID.TID 0000.0001) %MON fCori_min                    =   7.2900000000000E-05
(PID.TID 0000.0001) %MON fCori_mean                   =   7.2900000000001E-05
(PID.TID 0000.0001) %MON fCori_sd                     =   6.6407383064737E-19
(PID.TID 0000.0001) %MON fCoriG_max                   =   7.2900000000000E-05
(PID.TID 0000.0001) %MON fCoriG_min                   =   7.2900000000000E-05
(PID.TID 0000.0001) %MON fCoriG_mean                  =   7.2900000000001E-05
(PID.TID 0000.0001) %MON fCoriG_sd                    =   6.6407383064737E-19
(PID.TID 0000.0001) %MON fCoriCos_max                 =   0.0000000000000E+00
(PID.TID 0000.0001) %MON fCoriCos_min                 =   0.0000000000000E+00
(PID.TID 0000.0001) %MON fCoriCos_mean                =   0.0000000000000E+00
(PID.TID 0000.0001) %MON fCoriCos_sd                  =   0.0000000000000E+00
(PID.TID 0000.0001) // CG2D normalisation factor =           .5000000000000000104083409E-02
(PID.TID 0000.0001) 
(PID.TID 0000.0001) CONFIG_CHECK: OK
(PID.TID 0000.0001) // =======================================================
(PID.TID 0000.0001) // Model configuration
(PID.TID 0000.0001) // =======================================================
(PID.TID 0000.0001) //
(PID.TID 0000.0001) // "Physical" paramters ( PARM01 in namelist )
(PID.TID 0000.0001) //
(PID.TID 0000.0001) buoyancyRelation = OCEANIC
(PID.TID 0000.0001) fluidIsAir  =  /* fluid major constituent is Air */
(PID.TID 0000.0001)                   F
(PID.TID 0000.0001)     ;
(PID.TID 0000.0001) fluidIsWater=  /* fuild major constituent is Water */
(PID.TID 0000.0001)                   T
(PID.TID 0000.0001)     ;
(PID.TID 0000.0001) usingPCoords =  /* use p (or p*) vertical coordinate */
(PID.TID 0000.0001)                   F
(PID.TID 0000.0001)     ;
(PID.TID 0000.0001) usingZCoords =  /* use z (or z*) vertical coordinate */
(PID.TID 0000.0001)                   T
(PID.TID 0000.0001)     ;
(PID.TID 0000.0001) tRef =   /* Reference temperature profile ( oC or oK ) */
(PID.TID 0000.0001)                 2.900000000000000E+01,      /* K =  1 */
(PID.TID 0000.0001)                 2.800000000000000E+01,      /* K =  2 */
(PID.TID 0000.0001)                 2.700000000000000E+01,      /* K =  3 */
(PID.TID 0000.0001)                 2.600000000000000E+01,      /* K =  4 */
(PID.TID 0000.0001)                 2.500000000000000E+01,      /* K =  5 */
(PID.TID 0000.0001)                 2.400000000000000E+01,      /* K =  6 */
(PID.TID 0000.0001)                 2.300000000000000E+01,      /* K =  7 */
(PID.TID 0000.0001)                 2.200000000000000E+01,      /* K =  8 */
(PID.TID 0000.0001)                 2.100000000000000E+01,      /* K =  9 */
(PID.TID 0000.0001)                 2.000000000000000E+01,      /* K = 10 */
(PID.TID 0000.0001)                 1.900000000000000E+01,      /* K = 11 */
(PID.TID 0000.0001)                 1.800000000000000E+01,      /* K = 12 */
(PID.TID 0000.0001)                 1.700000000000000E+01,      /* K = 13 */
(PID.TID 0000.0001)                 1.600000000000000E+01,      /* K = 14 */
(PID.TID 0000.0001)                 1.500000000000000E+01,      /* K = 15 */
(PID.TID 0000.0001)                 1.400000000000000E+01,      /* K = 16 */
(PID.TID 0000.0001)                 1.300000000000000E+01,      /* K = 17 */
(PID.TID 0000.0001)                 1.200000000000000E+01,      /* K = 18 */
(PID.TID 0000.0001)                 1.100000000000000E+01,      /* K = 19 */
(PID.TID 0000.0001)                 1.000000000000000E+01,      /* K = 20 */
(PID.TID 0000.0001)                 9.000000000000000E+00,      /* K = 21 */
(PID.TID 0000.0001)                 8.000000000000000E+00,      /* K = 22 */
(PID.TID 0000.0001)                 7.000000000000000E+00,      /* K = 23 */
(PID.TID 0000.0001)                 6.000000000000000E+00,      /* K = 24 */
(PID.TID 0000.0001)                 5.000000000000000E+00,      /* K = 25 */
(PID.TID 0000.0001)                 4.000000000000000E+00,      /* K = 26 */
(PID.TID 0000.0001)                 3.000000000000000E+00,      /* K = 27 */
(PID.TID 0000.0001)                 2.000000000000000E+00,      /* K = 28 */
(PID.TID 0000.0001)                 1.000000000000000E+00,      /* K = 29 */
(PID.TID 0000.0001)                 0.000000000000000E+00,      /* K = 30 */
(PID.TID 0000.0001)                -1.000000000000000E+00,      /* K = 31 */
(PID.TID 0000.0001)                -2.000000000000000E+00,      /* K = 32 */
(PID.TID 0000.0001)                -3.000000000000000E+00,      /* K = 33 */
(PID.TID 0000.0001)                -4.000000000000000E+00,      /* K = 34 */
(PID.TID 0000.0001)                -5.000000000000000E+00,      /* K = 35 */
(PID.TID 0000.0001)                -6.000000000000000E+00,      /* K = 36 */
(PID.TID 0000.0001)                -7.000000000000000E+00,      /* K = 37 */
(PID.TID 0000.0001)                -8.000000000000000E+00,      /* K = 38 */
(PID.TID 0000.0001)                -9.000000000000000E+00,      /* K = 39 */
(PID.TID 0000.0001)                -1.000000000000000E+01       /* K = 40 */
(PID.TID 0000.0001)     ;
(PID.TID 0000.0001) sRef =   /* Reference salinity profile ( ppt ) */
(PID.TID 0000.0001)    40 @  0.000000000000000E+00              /* K =  1: 40 */
(PID.TID 0000.0001)     ;
(PID.TID 0000.0001) viscAh =   /* Lateral eddy viscosity ( m^2/s ) */
(PID.TID 0000.0001)                 3.000000000000000E+01
(PID.TID 0000.0001)     ;
(PID.TID 0000.0001) viscAhMax =   /* Maximum lateral eddy viscosity ( m^2/s ) */
(PID.TID 0000.0001)                 1.000000000000000E+21
(PID.TID 0000.0001)     ;
(PID.TID 0000.0001) viscAhGrid =   /* Grid dependent lateral eddy viscosity ( non-dim. ) */
(PID.TID 0000.0001)                 0.000000000000000E+00
(PID.TID 0000.0001)     ;
(PID.TID 0000.0001) useFullLeith =   /* Use Full Form of Leith Viscosity on/off flag*/
(PID.TID 0000.0001)                   T
(PID.TID 0000.0001)     ;
(PID.TID 0000.0001) viscC2leith =   /* Leith harmonic viscosity factor ( on grad(vort), non-dim. ) */
(PID.TID 0000.0001)                 5.000000000000000E+00
(PID.TID 0000.0001)     ;
(PID.TID 0000.0001) viscC2leithD =   /* Leith harmonic viscosity factor ( on grad(div), non-dim. ) */
(PID.TID 0000.0001)                 0.000000000000000E+00
(PID.TID 0000.0001)     ;
(PID.TID 0000.0001) viscC2smag =   /* Smagorinsky harmonic viscosity factor (non-dim.) */
(PID.TID 0000.0001)                 0.000000000000000E+00
(PID.TID 0000.0001)     ;
(PID.TID 0000.0001) viscA4 =   /* Lateral biharmonic viscosity ( m^4/s ) */
(PID.TID 0000.0001)                 0.000000000000000E+00
(PID.TID 0000.0001)     ;
(PID.TID 0000.0001) viscA4Max =   /* Maximum biharmonic viscosity ( m^2/s ) */
(PID.TID 0000.0001)                 1.000000000000000E+21
(PID.TID 0000.0001)     ;
(PID.TID 0000.0001) viscA4Grid =   /* Grid dependent biharmonic viscosity ( non-dim. ) */
(PID.TID 0000.0001)                 0.000000000000000E+00
(PID.TID 0000.0001)     ;
(PID.TID 0000.0001) viscC4leith =   /* Leith biharmonic viscosity factor ( on grad(vort), non-dom. ) */
(PID.TID 0000.0001)                 0.000000000000000E+00
(PID.TID 0000.0001)     ;
(PID.TID 0000.0001) viscC4leithD =   /* Leith biharmonic viscosity factor ( on grad(div), non-dom. ) */
(PID.TID 0000.0001)                 0.000000000000000E+00
(PID.TID 0000.0001)     ;
(PID.TID 0000.0001) no_slip_sides =  /* Viscous BCs: No-slip sides */
(PID.TID 0000.0001)                   F
(PID.TID 0000.0001)     ;
(PID.TID 0000.0001) viscAr =   /* Vertical eddy viscosity ( units of r^2/s ) */
(PID.TID 0000.0001)                 5.000000000000000E-03
(PID.TID 0000.0001)     ;
(PID.TID 0000.0001) no_slip_bottom =  /* Viscous BCs: No-slip bottom */
(PID.TID 0000.0001)                   F
(PID.TID 0000.0001)     ;
(PID.TID 0000.0001) diffKhT =   /* Laplacian diffusion of heat laterally ( m^2/s ) */
(PID.TID 0000.0001)                 0.000000000000000E+00
(PID.TID 0000.0001)     ;
(PID.TID 0000.0001) diffK4T =   /* Bihaarmonic diffusion of heat laterally ( m^4/s ) */
(PID.TID 0000.0001)                 0.000000000000000E+00
(PID.TID 0000.0001)     ;
(PID.TID 0000.0001) diffKhS =   /* Laplacian diffusion of salt laterally ( m^2/s ) */
(PID.TID 0000.0001)                 0.000000000000000E+00
(PID.TID 0000.0001)     ;
(PID.TID 0000.0001) diffK4S =   /* Bihaarmonic diffusion of salt laterally ( m^4/s ) */
(PID.TID 0000.0001)                 0.000000000000000E+00
(PID.TID 0000.0001)     ;
(PID.TID 0000.0001) diffKrNrT = /* vertical profile of vertical diffusion of Temp ( m^2/s )*/
(PID.TID 0000.0001)    40 @  0.000000000000000E+00              /* K =  1: 40 */
(PID.TID 0000.0001)     ;
(PID.TID 0000.0001) diffKrNrS = /* vertical profile of vertical diffusion of Salt ( m^2/s )*/
(PID.TID 0000.0001)    40 @  0.000000000000000E+00              /* K =  1: 40 */
(PID.TID 0000.0001)     ;
(PID.TID 0000.0001) diffKrBL79surf =   /* Surface diffusion for Bryan and Lewis 1979 ( m^2/s ) */
(PID.TID 0000.0001)                 0.000000000000000E+00
(PID.TID 0000.0001)     ;
(PID.TID 0000.0001) diffKrBL79deep =   /* Deep diffusion for Bryan and Lewis 1979 ( m^2/s ) */
(PID.TID 0000.0001)                 0.000000000000000E+00
(PID.TID 0000.0001)     ;
(PID.TID 0000.0001) diffKrBL79scl =   /* Depth scale for Bryan and Lewis 1979 ( m ) */
(PID.TID 0000.0001)                 2.000000000000000E+02
(PID.TID 0000.0001)     ;
(PID.TID 0000.0001) diffKrBL79Ho =   /* Turning depth for Bryan and Lewis 1979 ( m ) */
(PID.TID 0000.0001)                -2.000000000000000E+03
(PID.TID 0000.0001)     ;
(PID.TID 0000.0001)  Equation of State : eosType = LINEAR
(PID.TID 0000.0001) tAlpha =   /* Linear EOS thermal expansion coefficient ( 1/degree ) */
(PID.TID 0000.0001)                 2.000000000000000E-04
(PID.TID 0000.0001)     ;
(PID.TID 0000.0001) sBeta =   /* Linear EOS haline contraction coefficient ( 1/ppt ) */
(PID.TID 0000.0001)                 0.000000000000000E+00
(PID.TID 0000.0001)     ;
(PID.TID 0000.0001) rhonil =   /* Reference density ( kg/m^3 ) */
(PID.TID 0000.0001)                 1.035000000000000E+03
(PID.TID 0000.0001)     ;
(PID.TID 0000.0001) rhoConst =   /* Reference density ( kg/m^3 ) */
(PID.TID 0000.0001)                 1.035000000000000E+03
(PID.TID 0000.0001)     ;
(PID.TID 0000.0001) rhoConstFresh =   /* Reference density ( kg/m^3 ) */
(PID.TID 0000.0001)                 1.035000000000000E+03
(PID.TID 0000.0001)     ;
(PID.TID 0000.0001) gravity =   /* Gravitational acceleration ( m/s^2 ) */
(PID.TID 0000.0001)                 9.810000000000000E+00
(PID.TID 0000.0001)     ;
(PID.TID 0000.0001) gBaro =   /* Barotropic gravity ( m/s^2 ) */
(PID.TID 0000.0001)                 9.810000000000000E+00
(PID.TID 0000.0001)     ;
(PID.TID 0000.0001) rotationPeriod =   /* Rotation Period ( s ) */
(PID.TID 0000.0001)                 8.640000000000000E+04
(PID.TID 0000.0001)     ;
(PID.TID 0000.0001) omega =   /* Angular velocity ( rad/s ) */
(PID.TID 0000.0001)                 7.272205216643040E-05
(PID.TID 0000.0001)     ;
(PID.TID 0000.0001) f0 =   /* Reference coriolis parameter ( 1/s ) */
(PID.TID 0000.0001)                 7.290000000000000E-05
(PID.TID 0000.0001)     ;
(PID.TID 0000.0001) beta =   /* Beta ( 1/(m.s) ) */
(PID.TID 0000.0001)                 0.000000000000000E+00
(PID.TID 0000.0001)     ;
(PID.TID 0000.0001) freeSurfFac =   /* Implicit free surface factor */
(PID.TID 0000.0001)                 1.000000000000000E+00
(PID.TID 0000.0001)     ;
(PID.TID 0000.0001) implicitFreeSurface =   /* Implicit free surface on/off flag */
(PID.TID 0000.0001)                   T
(PID.TID 0000.0001)     ;
(PID.TID 0000.0001) rigidLid =   /* Rigid lid on/off flag */
(PID.TID 0000.0001)                   F
(PID.TID 0000.0001)     ;
(PID.TID 0000.0001) implicSurfPress =   /* Surface Pressure implicit factor (0-1)*/
(PID.TID 0000.0001)                 1.000000000000000E+00
(PID.TID 0000.0001)     ;
(PID.TID 0000.0001) implicDiv2Dflow =   /* Barot. Flow Div. implicit factor (0-1)*/
(PID.TID 0000.0001)                 1.000000000000000E+00
(PID.TID 0000.0001)     ;
(PID.TID 0000.0001) exactConserv =   /* Exact Volume Conservation on/off flag*/
(PID.TID 0000.0001)                   F
(PID.TID 0000.0001)     ;
(PID.TID 0000.0001) uniformLin_PhiSurf =   /* use uniform Bo_surf on/off flag*/
(PID.TID 0000.0001)                   T
(PID.TID 0000.0001)     ;
(PID.TID 0000.0001) nonlinFreeSurf =   /* Non-linear Free Surf. options (-1,0,1,2,3)*/
(PID.TID 0000.0001)                       0
(PID.TID 0000.0001)     ;
(PID.TID 0000.0001)      -1,0= Off ; 1,2,3= On, 2=+rescale gU,gV, 3=+update cg2d solv.
(PID.TID 0000.0001) hFacInf =   /* lower threshold for hFac (nonlinFreeSurf only)*/
(PID.TID 0000.0001)                 2.000000000000000E-01
(PID.TID 0000.0001)     ;
(PID.TID 0000.0001) hFacSup =   /* upper threshold for hFac (nonlinFreeSurf only)*/
(PID.TID 0000.0001)                 2.000000000000000E+00
(PID.TID 0000.0001)     ;
(PID.TID 0000.0001) select_rStar =   /* r* Coordinate options (not yet implemented)*/
(PID.TID 0000.0001)                       0
(PID.TID 0000.0001)     ;
(PID.TID 0000.0001) useRealFreshWaterFlux =   /* Real Fresh Water Flux on/off flag*/
(PID.TID 0000.0001)                   F
(PID.TID 0000.0001)     ;
(PID.TID 0000.0001) convertFW2Salt = /* convert F.W. Flux to Salt Flux (-1=use local S)(ppt)*/
(PID.TID 0000.0001)                 3.500000000000000E+01
(PID.TID 0000.0001)     ;
(PID.TID 0000.0001) nonHydrostatic =  /* Non-Hydrostatic on/off flag */
(PID.TID 0000.0001)                   F
(PID.TID 0000.0001)     ;
(PID.TID 0000.0001) momStepping =  /* Momentum equation on/off flag */
(PID.TID 0000.0001)                   T
(PID.TID 0000.0001)     ;
(PID.TID 0000.0001) momAdvection =  /* Momentum advection on/off flag */
(PID.TID 0000.0001)                   T
(PID.TID 0000.0001)     ;
(PID.TID 0000.0001) momViscosity =  /* Momentum viscosity on/off flag */
(PID.TID 0000.0001)                   T
(PID.TID 0000.0001)     ;
(PID.TID 0000.0001) momImplVertAdv =/* Momentum implicit vert. advection on/off*/
(PID.TID 0000.0001)                   F
(PID.TID 0000.0001)     ;
(PID.TID 0000.0001) implicitViscosity = /* Implicit viscosity on/off flag */
(PID.TID 0000.0001)                   T
(PID.TID 0000.0001)     ;
(PID.TID 0000.0001) useCoriolis =  /* Coriolis on/off flag */
(PID.TID 0000.0001)                   T
(PID.TID 0000.0001)     ;
(PID.TID 0000.0001) useCDscheme =  /* CD scheme on/off flag */
(PID.TID 0000.0001)                   F
(PID.TID 0000.0001)     ;
(PID.TID 0000.0001) useJamartWetPoints= /* Coriolis WetPoints method flag */
(PID.TID 0000.0001)                   T
(PID.TID 0000.0001)     ;
(PID.TID 0000.0001) useJamartMomAdv= /* V.I. Non-linear terms Jamart flag */
(PID.TID 0000.0001)                   F
(PID.TID 0000.0001)     ;
(PID.TID 0000.0001) SadournyCoriolis= /* Sadourny Coriolis discr. flag */
(PID.TID 0000.0001)                   F
(PID.TID 0000.0001)     ;
(PID.TID 0000.0001) upwindVorticity= /* Upwind bias vorticity flag */
(PID.TID 0000.0001)                   F
(PID.TID 0000.0001)     ;
(PID.TID 0000.0001) useAbsVorticity= /* Work with f+zeta in Coriolis */
(PID.TID 0000.0001)                   F
(PID.TID 0000.0001)     ;
(PID.TID 0000.0001) highOrderVorticity= /* High order interp. of vort. flag */
(PID.TID 0000.0001)                   F
(PID.TID 0000.0001)     ;
(PID.TID 0000.0001) momForcing =  /* Momentum forcing on/off flag */
(PID.TID 0000.0001)                   T
(PID.TID 0000.0001)     ;
(PID.TID 0000.0001) momPressureForcing =  /* Momentum pressure term on/off flag */
(PID.TID 0000.0001)                   T
(PID.TID 0000.0001)     ;
(PID.TID 0000.0001) staggerTimeStep =   /* Stagger time stepping on/off flag */
(PID.TID 0000.0001)                   T
(PID.TID 0000.0001)     ;
(PID.TID 0000.0001) multiDimAdvection =   /* enable/disable Multi-Dim Advection */
(PID.TID 0000.0001)                   T
(PID.TID 0000.0001)     ;
(PID.TID 0000.0001) useMultiDimAdvec =   /* Multi-Dim Advection is/is-not used */
(PID.TID 0000.0001)                   T
(PID.TID 0000.0001)     ;
(PID.TID 0000.0001) implicitDiffusion =/* Implicit Diffusion on/off flag */
(PID.TID 0000.0001)                   T
(PID.TID 0000.0001)     ;
(PID.TID 0000.0001) tempStepping =  /* Temperature equation on/off flag */
(PID.TID 0000.0001)                   T
(PID.TID 0000.0001)     ;
(PID.TID 0000.0001) tempAdvection=  /* Temperature advection on/off flag */
(PID.TID 0000.0001)                   T
(PID.TID 0000.0001)     ;
(PID.TID 0000.0001) tempImplVertAdv =/* Temp. implicit vert. advection on/off */
(PID.TID 0000.0001)                   F
(PID.TID 0000.0001)     ;
(PID.TID 0000.0001) tempForcing  =  /* Temperature forcing on/off flag */
(PID.TID 0000.0001)                   T
(PID.TID 0000.0001)     ;
(PID.TID 0000.0001) saltStepping =  /* Salinity equation on/off flag */
(PID.TID 0000.0001)                   T
(PID.TID 0000.0001)     ;
(PID.TID 0000.0001) saltAdvection=  /* Salinity advection on/off flag */
(PID.TID 0000.0001)                   T
(PID.TID 0000.0001)     ;
(PID.TID 0000.0001) saltImplVertAdv =/* Sali. implicit vert. advection on/off */
(PID.TID 0000.0001)                   F
(PID.TID 0000.0001)     ;
(PID.TID 0000.0001) saltForcing  =  /* Salinity forcing on/off flag */
(PID.TID 0000.0001)                   T
(PID.TID 0000.0001)     ;
(PID.TID 0000.0001) //
(PID.TID 0000.0001) // Elliptic solver(s) paramters ( PARM02 in namelist )
(PID.TID 0000.0001) //
(PID.TID 0000.0001) cg2dMaxIters =   /* Upper limit on 2d con. grad iterations  */
(PID.TID 0000.0001)                    1000
(PID.TID 0000.0001)     ;
(PID.TID 0000.0001) cg2dChkResFreq =   /* 2d con. grad convergence test frequency */
(PID.TID 0000.0001)                       1
(PID.TID 0000.0001)     ;
(PID.TID 0000.0001) cg2dTargetResidual =   /* 2d con. grad target residual  */
(PID.TID 0000.0001)                 9.999999999999999E-12
(PID.TID 0000.0001)     ;
(PID.TID 0000.0001) cg2dTargetResWunit =   /* CG2d target residual [W units] */
(PID.TID 0000.0001)                -1.000000000000000E+00
(PID.TID 0000.0001)     ;
(PID.TID 0000.0001) cg2dPreCondFreq =   /* Freq. for updating cg2d preconditioner */
(PID.TID 0000.0001)                       1
(PID.TID 0000.0001)     ;
(PID.TID 0000.0001) //
(PID.TID 0000.0001) // Time stepping paramters ( PARM03 in namelist )
(PID.TID 0000.0001) //
(PID.TID 0000.0001) nIter0 =   /* Base timestep number  */
(PID.TID 0000.0001)                       0
(PID.TID 0000.0001)     ;
(PID.TID 0000.0001) nTimeSteps =   /* Number of timesteps */
(PID.TID 0000.0001)                      72
(PID.TID 0000.0001)     ;
(PID.TID 0000.0001) deltatTmom =   /* Momentum equation timestep ( s ) */
(PID.TID 0000.0001)                 1.200000000000000E+03
(PID.TID 0000.0001)     ;
(PID.TID 0000.0001) deltaTfreesurf =   /* FreeSurface equation timestep ( s ) */
(PID.TID 0000.0001)                 1.200000000000000E+03
(PID.TID 0000.0001)     ;
(PID.TID 0000.0001) dTtracerLev =   /* Tracer equation timestep ( s ) */
(PID.TID 0000.0001)    40 @  1.200000000000000E+03              /* K =  1: 40 */
(PID.TID 0000.0001)     ;
(PID.TID 0000.0001) deltatTClock  =   /* Model clock timestep ( s ) */
(PID.TID 0000.0001)                 1.200000000000000E+03
(PID.TID 0000.0001)     ;
(PID.TID 0000.0001) cAdjFreq =   /* Convective adjustment interval ( s ) */
(PID.TID 0000.0001)                 0.000000000000000E+00
(PID.TID 0000.0001)     ;
(PID.TID 0000.0001) forcing_In_AB =   /* put T,S Forcing in Adams-Bash. stepping */
(PID.TID 0000.0001)                   T
(PID.TID 0000.0001)     ;
(PID.TID 0000.0001) abeps =   /* Adams-Bashforth stabilizing weight */
(PID.TID 0000.0001)                 1.000000000000000E-02
(PID.TID 0000.0001)     ;
(PID.TID 0000.0001) startTime =   /* Run start time ( s ). */
(PID.TID 0000.0001)                 0.000000000000000E+00
(PID.TID 0000.0001)     ;
(PID.TID 0000.0001) endTime =   /* Integration ending time ( s ). */
(PID.TID 0000.0001)                 8.640000000000000E+04
(PID.TID 0000.0001)     ;
(PID.TID 0000.0001) pChkPtFreq =   /* Permanent restart/checkpoint file interval ( s ). */
(PID.TID 0000.0001)                 4.320000000000000E+04
(PID.TID 0000.0001)     ;
(PID.TID 0000.0001) chkPtFreq =   /* Rolling restart/checkpoint file interval ( s ). */
(PID.TID 0000.0001)                 0.000000000000000E+00
(PID.TID 0000.0001)     ;
(PID.TID 0000.0001) pickup_write_mdsio =   /* Model IO flag. */
(PID.TID 0000.0001)                   F
(PID.TID 0000.0001)     ;
(PID.TID 0000.0001) pickup_read_mdsio =   /* Model IO flag. */
(PID.TID 0000.0001)                   F
(PID.TID 0000.0001)     ;
(PID.TID 0000.0001) pickup_write_mnc =   /* Model IO flag. */
(PID.TID 0000.0001)                   T
(PID.TID 0000.0001)     ;
(PID.TID 0000.0001) pickup_read_mnc =   /* Model IO flag. */
(PID.TID 0000.0001)                   T
(PID.TID 0000.0001)     ;
(PID.TID 0000.0001) pickup_write_immed =   /* Model IO flag. */
(PID.TID 0000.0001)                   F
(PID.TID 0000.0001)     ;
(PID.TID 0000.0001) dumpFreq =   /* Model state write out interval ( s ). */
(PID.TID 0000.0001)                 7.200000000000000E+03
(PID.TID 0000.0001)     ;
(PID.TID 0000.0001) snapshot_mdsio =   /* Model IO flag. */
(PID.TID 0000.0001)                   F
(PID.TID 0000.0001)     ;
(PID.TID 0000.0001) snapshot_mnc =   /* Model IO flag. */
(PID.TID 0000.0001)                   T
(PID.TID 0000.0001)     ;
(PID.TID 0000.0001) monitorFreq =   /* Monitor output interval ( s ). */
(PID.TID 0000.0001)                 1.200000000000000E+03
(PID.TID 0000.0001)     ;
(PID.TID 0000.0001) monitor_stdio =   /* Model IO flag. */
(PID.TID 0000.0001)                   T
(PID.TID 0000.0001)     ;
(PID.TID 0000.0001) monitor_mnc =   /* Model IO flag. */
(PID.TID 0000.0001)                   F
(PID.TID 0000.0001)     ;
(PID.TID 0000.0001) externForcingPeriod =   /* forcing period (s) */
(PID.TID 0000.0001)                 0.000000000000000E+00
(PID.TID 0000.0001)     ;
(PID.TID 0000.0001) externForcingCycle =   /* period of the cyle (s). */
(PID.TID 0000.0001)                 0.000000000000000E+00
(PID.TID 0000.0001)     ;
(PID.TID 0000.0001) tauThetaClimRelax =   /* relaxation time scale (s) */
(PID.TID 0000.0001)                 0.000000000000000E+00
(PID.TID 0000.0001)     ;
(PID.TID 0000.0001) tauSaltClimRelax =   /* relaxation time scale (s) */
(PID.TID 0000.0001)                 0.000000000000000E+00
(PID.TID 0000.0001)     ;
(PID.TID 0000.0001) latBandClimRelax =   /* max. Lat. where relaxation */
(PID.TID 0000.0001)                 6.760000000000000E+05
(PID.TID 0000.0001)     ;
(PID.TID 0000.0001) //
(PID.TID 0000.0001) // Gridding paramters ( PARM04 in namelist )
(PID.TID 0000.0001) //
(PID.TID 0000.0001) usingCartesianGrid =   /* Cartesian coordinates flag ( True / False ) */
(PID.TID 0000.0001)                   T
(PID.TID 0000.0001)     ;
(PID.TID 0000.0001) usingSphericalPolarGrid =   /* Spherical coordinates flag ( True / False ) */
(PID.TID 0000.0001)                   F
(PID.TID 0000.0001)     ;
(PID.TID 0000.0001) usingCylindricalGrid =   /* Spherical coordinates flag ( True / False ) */
(PID.TID 0000.0001)                   F
(PID.TID 0000.0001)     ;
(PID.TID 0000.0001) groundAtK1 =   /* Lower Boundary (ground) at the surface(k=1) ( T / F ) */
(PID.TID 0000.0001)                   F
(PID.TID 0000.0001)     ;
(PID.TID 0000.0001) Ro_SeaLevel =   /* r(1) ( units of r ) */
(PID.TID 0000.0001)                 0.000000000000000E+00
(PID.TID 0000.0001)     ;
(PID.TID 0000.0001) rkFac =   /* minus Vertical index orientation  */
(PID.TID 0000.0001)                 1.000000000000000E+00
(PID.TID 0000.0001)     ;
(PID.TID 0000.0001) horiVertRatio =   /* Ratio on units : Horiz - Vertical */
(PID.TID 0000.0001)                 1.000000000000000E+00
(PID.TID 0000.0001)     ;
(PID.TID 0000.0001) drC =   /* C spacing ( units of r ) */
(PID.TID 0000.0001)                 2.500000000000000E+00,      /* K =  1 */
(PID.TID 0000.0001)    39 @  5.000000000000000E+00              /* K =  2: 40 */
(PID.TID 0000.0001)     ;
(PID.TID 0000.0001) drF =   /* W spacing ( units of r ) */
(PID.TID 0000.0001)    40 @  5.000000000000000E+00              /* K =  1: 40 */
(PID.TID 0000.0001)     ;
(PID.TID 0000.0001) delX =   /* U spacing ( m - cartesian, degrees - spherical ) */
(PID.TID 0000.0001)    50 @  1.000000000000000E+03              /* I =  1: 50 */
(PID.TID 0000.0001)     ;
(PID.TID 0000.0001) delY =   /* V spacing ( m - cartesian, degrees - spherical ) */
(PID.TID 0000.0001)    26 @  1.000000000000000E+03              /* J =  1: 26 */
(PID.TID 0000.0001)     ;
(PID.TID 0000.0001) phiMin =    /* South edge (ignored - cartesian, degrees - spherical ) */
(PID.TID 0000.0001)                 0.000000000000000E+00
(PID.TID 0000.0001)     ;
(PID.TID 0000.0001) thetaMin =    /* West edge ( ignored - cartesian, degrees - spherical ) */
(PID.TID 0000.0001)                 0.000000000000000E+00
(PID.TID 0000.0001)     ;
(PID.TID 0000.0001) rSphere =    /* Radius ( ignored - cartesian, m - spherical ) */
(PID.TID 0000.0001)                 6.370000000000000E+06
(PID.TID 0000.0001)     ;
(PID.TID 0000.0001) xcoord =   /* P-point X coord ( m - cartesian, degrees - spherical ) */
(PID.TID 0000.0001)                 5.000000000000000E+02,      /* I =  1 */
(PID.TID 0000.0001)                 1.500000000000000E+03,      /* I =  2 */
(PID.TID 0000.0001)                 2.500000000000000E+03,      /* I =  3 */
(PID.TID 0000.0001)                 3.500000000000000E+03,      /* I =  4 */
(PID.TID 0000.0001)                 4.500000000000000E+03,      /* I =  5 */
(PID.TID 0000.0001)                 5.500000000000000E+03,      /* I =  6 */
(PID.TID 0000.0001)                 6.500000000000000E+03,      /* I =  7 */
(PID.TID 0000.0001)                 7.500000000000000E+03,      /* I =  8 */
(PID.TID 0000.0001)                 8.500000000000000E+03,      /* I =  9 */
(PID.TID 0000.0001)                 9.500000000000000E+03,      /* I = 10 */
(PID.TID 0000.0001)                 1.050000000000000E+04,      /* I = 11 */
(PID.TID 0000.0001)                 1.150000000000000E+04,      /* I = 12 */
(PID.TID 0000.0001)                 1.250000000000000E+04,      /* I = 13 */
(PID.TID 0000.0001)                 1.350000000000000E+04,      /* I = 14 */
(PID.TID 0000.0001)                 1.450000000000000E+04,      /* I = 15 */
(PID.TID 0000.0001)                 1.550000000000000E+04,      /* I = 16 */
(PID.TID 0000.0001)                 1.650000000000000E+04,      /* I = 17 */
(PID.TID 0000.0001)                 1.750000000000000E+04,      /* I = 18 */
(PID.TID 0000.0001)                 1.850000000000000E+04,      /* I = 19 */
(PID.TID 0000.0001)                 1.950000000000000E+04,      /* I = 20 */
(PID.TID 0000.0001)                 2.050000000000000E+04,      /* I = 21 */
(PID.TID 0000.0001)                 2.150000000000000E+04,      /* I = 22 */
(PID.TID 0000.0001)                 2.250000000000000E+04,      /* I = 23 */
(PID.TID 0000.0001)                 2.350000000000000E+04,      /* I = 24 */
(PID.TID 0000.0001)                 2.450000000000000E+04,      /* I = 25 */
(PID.TID 0000.0001)                 2.550000000000000E+04,      /* I = 26 */
(PID.TID 0000.0001)                 2.650000000000000E+04,      /* I = 27 */
(PID.TID 0000.0001)                 2.750000000000000E+04,      /* I = 28 */
(PID.TID 0000.0001)                 2.850000000000000E+04,      /* I = 29 */
(PID.TID 0000.0001)                 2.950000000000000E+04,      /* I = 30 */
(PID.TID 0000.0001)                 3.050000000000000E+04,      /* I = 31 */
(PID.TID 0000.0001)                 3.150000000000000E+04,      /* I = 32 */
(PID.TID 0000.0001)                 3.250000000000000E+04,      /* I = 33 */
(PID.TID 0000.0001)                 3.350000000000000E+04,      /* I = 34 */
(PID.TID 0000.0001)                 3.450000000000000E+04,      /* I = 35 */
(PID.TID 0000.0001)                 3.550000000000000E+04,      /* I = 36 */
(PID.TID 0000.0001)                 3.650000000000000E+04,      /* I = 37 */
(PID.TID 0000.0001)                 3.750000000000000E+04,      /* I = 38 */
(PID.TID 0000.0001)                 3.850000000000000E+04,      /* I = 39 */
(PID.TID 0000.0001)                 3.950000000000000E+04,      /* I = 40 */
(PID.TID 0000.0001)                 4.050000000000000E+04,      /* I = 41 */
(PID.TID 0000.0001)                 4.150000000000000E+04,      /* I = 42 */
(PID.TID 0000.0001)                 4.250000000000000E+04,      /* I = 43 */
(PID.TID 0000.0001)                 4.350000000000000E+04,      /* I = 44 */
(PID.TID 0000.0001)                 4.450000000000000E+04,      /* I = 45 */
(PID.TID 0000.0001)                 4.550000000000000E+04,      /* I = 46 */
(PID.TID 0000.0001)                 4.650000000000000E+04,      /* I = 47 */
(PID.TID 0000.0001)                 4.750000000000000E+04,      /* I = 48 */
(PID.TID 0000.0001)                 4.850000000000000E+04,      /* I = 49 */
(PID.TID 0000.0001)                 4.950000000000000E+04       /* I = 50 */
(PID.TID 0000.0001)     ;
(PID.TID 0000.0001) ycoord =   /* P-point Y coord ( m - cartesian, degrees - spherical ) */
(PID.TID 0000.0001)                 5.000000000000000E+02,      /* J =  1 */
(PID.TID 0000.0001)                 1.500000000000000E+03,      /* J =  2 */
(PID.TID 0000.0001)                 2.500000000000000E+03,      /* J =  3 */
(PID.TID 0000.0001)                 3.500000000000000E+03,      /* J =  4 */
(PID.TID 0000.0001)                 4.500000000000000E+03,      /* J =  5 */
(PID.TID 0000.0001)                 5.500000000000000E+03,      /* J =  6 */
(PID.TID 0000.0001)                 6.500000000000000E+03,      /* J =  7 */
(PID.TID 0000.0001)                 7.500000000000000E+03,      /* J =  8 */
(PID.TID 0000.0001)                 8.500000000000000E+03,      /* J =  9 */
(PID.TID 0000.0001)                 9.500000000000000E+03,      /* J = 10 */
(PID.TID 0000.0001)                 1.050000000000000E+04,      /* J = 11 */
(PID.TID 0000.0001)                 1.150000000000000E+04,      /* J = 12 */
(PID.TID 0000.0001)                 1.250000000000000E+04,      /* J = 13 */
(PID.TID 0000.0001)                 1.350000000000000E+04,      /* J = 14 */
(PID.TID 0000.0001)                 1.450000000000000E+04,      /* J = 15 */
(PID.TID 0000.0001)                 1.550000000000000E+04,      /* J = 16 */
(PID.TID 0000.0001)                 1.650000000000000E+04,      /* J = 17 */
(PID.TID 0000.0001)                 1.750000000000000E+04,      /* J = 18 */
(PID.TID 0000.0001)                 1.850000000000000E+04,      /* J = 19 */
(PID.TID 0000.0001)                 1.950000000000000E+04,      /* J = 20 */
(PID.TID 0000.0001)                 2.050000000000000E+04,      /* J = 21 */
(PID.TID 0000.0001)                 2.150000000000000E+04,      /* J = 22 */
(PID.TID 0000.0001)                 2.250000000000000E+04,      /* J = 23 */
(PID.TID 0000.0001)                 2.350000000000000E+04,      /* J = 24 */
(PID.TID 0000.0001)                 2.450000000000000E+04,      /* J = 25 */
(PID.TID 0000.0001)                 2.550000000000000E+04       /* J = 26 */
(PID.TID 0000.0001)     ;
(PID.TID 0000.0001) rcoord =   /* P-point R coordinate (  units of r ) */
(PID.TID 0000.0001)                -2.500000000000000E+00,      /* K =  1 */
(PID.TID 0000.0001)                -7.500000000000000E+00,      /* K =  2 */
(PID.TID 0000.0001)                -1.250000000000000E+01,      /* K =  3 */
(PID.TID 0000.0001)                -1.750000000000000E+01,      /* K =  4 */
(PID.TID 0000.0001)                -2.250000000000000E+01,      /* K =  5 */
(PID.TID 0000.0001)                -2.750000000000000E+01,      /* K =  6 */
(PID.TID 0000.0001)                -3.250000000000000E+01,      /* K =  7 */
(PID.TID 0000.0001)                -3.750000000000000E+01,      /* K =  8 */
(PID.TID 0000.0001)                -4.250000000000000E+01,      /* K =  9 */
(PID.TID 0000.0001)                -4.750000000000000E+01,      /* K = 10 */
(PID.TID 0000.0001)                -5.250000000000000E+01,      /* K = 11 */
(PID.TID 0000.0001)                -5.750000000000000E+01,      /* K = 12 */
(PID.TID 0000.0001)                -6.250000000000000E+01,      /* K = 13 */
(PID.TID 0000.0001)                -6.750000000000000E+01,      /* K = 14 */
(PID.TID 0000.0001)                -7.250000000000000E+01,      /* K = 15 */
(PID.TID 0000.0001)                -7.750000000000000E+01,      /* K = 16 */
(PID.TID 0000.0001)                -8.250000000000000E+01,      /* K = 17 */
(PID.TID 0000.0001)                -8.750000000000000E+01,      /* K = 18 */
(PID.TID 0000.0001)                -9.250000000000000E+01,      /* K = 19 */
(PID.TID 0000.0001)                -9.750000000000000E+01,      /* K = 20 */
(PID.TID 0000.0001)                -1.025000000000000E+02,      /* K = 21 */
(PID.TID 0000.0001)                -1.075000000000000E+02,      /* K = 22 */
(PID.TID 0000.0001)                -1.125000000000000E+02,      /* K = 23 */
(PID.TID 0000.0001)                -1.175000000000000E+02,      /* K = 24 */
(PID.TID 0000.0001)                -1.225000000000000E+02,      /* K = 25 */
(PID.TID 0000.0001)                -1.275000000000000E+02,      /* K = 26 */
(PID.TID 0000.0001)                -1.325000000000000E+02,      /* K = 27 */
(PID.TID 0000.0001)                -1.375000000000000E+02,      /* K = 28 */
(PID.TID 0000.0001)                -1.425000000000000E+02,      /* K = 29 */
(PID.TID 0000.0001)                -1.475000000000000E+02,      /* K = 30 */
(PID.TID 0000.0001)                -1.525000000000000E+02,      /* K = 31 */
(PID.TID 0000.0001)                -1.575000000000000E+02,      /* K = 32 */
(PID.TID 0000.0001)                -1.625000000000000E+02,      /* K = 33 */
(PID.TID 0000.0001)                -1.675000000000000E+02,      /* K = 34 */
(PID.TID 0000.0001)                -1.725000000000000E+02,      /* K = 35 */
(PID.TID 0000.0001)                -1.775000000000000E+02,      /* K = 36 */
(PID.TID 0000.0001)                -1.825000000000000E+02,      /* K = 37 */
(PID.TID 0000.0001)                -1.875000000000000E+02,      /* K = 38 */
(PID.TID 0000.0001)                -1.925000000000000E+02,      /* K = 39 */
(PID.TID 0000.0001)                -1.975000000000000E+02       /* K = 40 */
(PID.TID 0000.0001)     ;
(PID.TID 0000.0001) rF =   /* W-Interf. R coordinate (  units of r ) */
(PID.TID 0000.0001)                 0.000000000000000E+00,      /* K =  1 */
(PID.TID 0000.0001)                -5.000000000000000E+00,      /* K =  2 */
(PID.TID 0000.0001)                -1.000000000000000E+01,      /* K =  3 */
(PID.TID 0000.0001)                -1.500000000000000E+01,      /* K =  4 */
(PID.TID 0000.0001)                -2.000000000000000E+01,      /* K =  5 */
(PID.TID 0000.0001)                -2.500000000000000E+01,      /* K =  6 */
(PID.TID 0000.0001)                -3.000000000000000E+01,      /* K =  7 */
(PID.TID 0000.0001)                -3.500000000000000E+01,      /* K =  8 */
(PID.TID 0000.0001)                -4.000000000000000E+01,      /* K =  9 */
(PID.TID 0000.0001)                -4.500000000000000E+01,      /* K = 10 */
(PID.TID 0000.0001)                -5.000000000000000E+01,      /* K = 11 */
(PID.TID 0000.0001)                -5.500000000000000E+01,      /* K = 12 */
(PID.TID 0000.0001)                -6.000000000000000E+01,      /* K = 13 */
(PID.TID 0000.0001)                -6.500000000000000E+01,      /* K = 14 */
(PID.TID 0000.0001)                -7.000000000000000E+01,      /* K = 15 */
(PID.TID 0000.0001)                -7.500000000000000E+01,      /* K = 16 */
(PID.TID 0000.0001)                -8.000000000000000E+01,      /* K = 17 */
(PID.TID 0000.0001)                -8.500000000000000E+01,      /* K = 18 */
(PID.TID 0000.0001)                -9.000000000000000E+01,      /* K = 19 */
(PID.TID 0000.0001)                -9.500000000000000E+01,      /* K = 20 */
(PID.TID 0000.0001)                -1.000000000000000E+02,      /* K = 21 */
(PID.TID 0000.0001)                -1.050000000000000E+02,      /* K = 22 */
(PID.TID 0000.0001)                -1.100000000000000E+02,      /* K = 23 */
(PID.TID 0000.0001)                -1.150000000000000E+02,      /* K = 24 */
(PID.TID 0000.0001)                -1.200000000000000E+02,      /* K = 25 */
(PID.TID 0000.0001)                -1.250000000000000E+02,      /* K = 26 */
(PID.TID 0000.0001)                -1.300000000000000E+02,      /* K = 27 */
(PID.TID 0000.0001)                -1.350000000000000E+02,      /* K = 28 */
(PID.TID 0000.0001)                -1.400000000000000E+02,      /* K = 29 */
(PID.TID 0000.0001)                -1.450000000000000E+02,      /* K = 30 */
(PID.TID 0000.0001)                -1.500000000000000E+02,      /* K = 31 */
(PID.TID 0000.0001)                -1.550000000000000E+02,      /* K = 32 */
(PID.TID 0000.0001)                -1.600000000000000E+02,      /* K = 33 */
(PID.TID 0000.0001)                -1.650000000000000E+02,      /* K = 34 */
(PID.TID 0000.0001)                -1.700000000000000E+02,      /* K = 35 */
(PID.TID 0000.0001)                -1.750000000000000E+02,      /* K = 36 */
(PID.TID 0000.0001)                -1.800000000000000E+02,      /* K = 37 */
(PID.TID 0000.0001)                -1.850000000000000E+02,      /* K = 38 */
(PID.TID 0000.0001)                -1.900000000000000E+02,      /* K = 39 */
(PID.TID 0000.0001)                -1.950000000000000E+02,      /* K = 40 */
(PID.TID 0000.0001)                -2.000000000000000E+02       /* K = 41 */
(PID.TID 0000.0001)     ;
(PID.TID 0000.0001) dxF =  /* dxF(:,1,:,1) ( m - cartesian, degrees - spherical ) */
(PID.TID 0000.0001)    50 @  1.000000000000000E+03              /* I =  1: 50 */
(PID.TID 0000.0001)     ;
(PID.TID 0000.0001) dxF =  /* dxF(1,:,1,:) ( m - cartesian, degrees - spherical ) */
(PID.TID 0000.0001)    26 @  1.000000000000000E+03              /* J =  1: 26 */
(PID.TID 0000.0001)     ;
(PID.TID 0000.0001) dyF =  /* dyF(:,1,:,1) ( m - cartesian, degrees - spherical ) */
(PID.TID 0000.0001)    50 @  1.000000000000000E+03              /* I =  1: 50 */
(PID.TID 0000.0001)     ;
(PID.TID 0000.0001) dyF =  /* dyF(1,:,1,:) ( m - cartesian, degrees - spherical ) */
(PID.TID 0000.0001)    26 @  1.000000000000000E+03              /* J =  1: 26 */
(PID.TID 0000.0001)     ;
(PID.TID 0000.0001) dxG =  /* dxG(:,1,:,1) ( m - cartesian, degrees - spherical ) */
(PID.TID 0000.0001)    50 @  1.000000000000000E+03              /* I =  1: 50 */
(PID.TID 0000.0001)     ;
(PID.TID 0000.0001) dxG =  /* dxG(1,:,1,:) ( m - cartesian, degrees - spherical ) */
(PID.TID 0000.0001)    26 @  1.000000000000000E+03              /* J =  1: 26 */
(PID.TID 0000.0001)     ;
(PID.TID 0000.0001) dyG =  /* dyG(:,1,:,1) ( m - cartesian, degrees - spherical ) */
(PID.TID 0000.0001)    50 @  1.000000000000000E+03              /* I =  1: 50 */
(PID.TID 0000.0001)     ;
(PID.TID 0000.0001) dyG =  /* dyG(1,:,1,:) ( m - cartesian, degrees - spherical ) */
(PID.TID 0000.0001)    26 @  1.000000000000000E+03              /* J =  1: 26 */
(PID.TID 0000.0001)     ;
(PID.TID 0000.0001) dxC =  /* dxC(:,1,:,1) ( m - cartesian, degrees - spherical ) */
(PID.TID 0000.0001)    50 @  1.000000000000000E+03              /* I =  1: 50 */
(PID.TID 0000.0001)     ;
(PID.TID 0000.0001) dxC =  /* dxC(1,:,1,:) ( m - cartesian, degrees - spherical ) */
(PID.TID 0000.0001)    26 @  1.000000000000000E+03              /* J =  1: 26 */
(PID.TID 0000.0001)     ;
(PID.TID 0000.0001) dyC =  /* dyC(:,1,:,1) ( m - cartesian, degrees - spherical ) */
(PID.TID 0000.0001)    50 @  1.000000000000000E+03              /* I =  1: 50 */
(PID.TID 0000.0001)     ;
(PID.TID 0000.0001) dyC =  /* dyC(1,:,1,:) ( m - cartesian, degrees - spherical ) */
(PID.TID 0000.0001)    26 @  1.000000000000000E+03              /* J =  1: 26 */
(PID.TID 0000.0001)     ;
(PID.TID 0000.0001) dxV =  /* dxV(:,1,:,1) ( m - cartesian, degrees - spherical ) */
(PID.TID 0000.0001)    50 @  1.000000000000000E+03              /* I =  1: 50 */
(PID.TID 0000.0001)     ;
(PID.TID 0000.0001) dxV =  /* dxV(1,:,1,:) ( m - cartesian, degrees - spherical ) */
(PID.TID 0000.0001)    26 @  1.000000000000000E+03              /* J =  1: 26 */
(PID.TID 0000.0001)     ;
(PID.TID 0000.0001) dyU =  /* dyU(:,1,:,1) ( m - cartesian, degrees - spherical ) */
(PID.TID 0000.0001)    50 @  1.000000000000000E+03              /* I =  1: 50 */
(PID.TID 0000.0001)     ;
(PID.TID 0000.0001) dyU =  /* dyU(1,:,1,:) ( m - cartesian, degrees - spherical ) */
(PID.TID 0000.0001)    26 @  1.000000000000000E+03              /* J =  1: 26 */
(PID.TID 0000.0001)     ;
(PID.TID 0000.0001) rA =  /* rA(:,1,:,1) ( m - cartesian, degrees - spherical ) */
(PID.TID 0000.0001)    50 @  1.000000000000000E+06              /* I =  1: 50 */
(PID.TID 0000.0001)     ;
(PID.TID 0000.0001) rA =  /* rA(1,:,1,:) ( m - cartesian, degrees - spherical ) */
(PID.TID 0000.0001)    26 @  1.000000000000000E+06              /* J =  1: 26 */
(PID.TID 0000.0001)     ;
(PID.TID 0000.0001) rAw =  /* rAw(:,1,:,1) ( m - cartesian, degrees - spherical ) */
(PID.TID 0000.0001)    50 @  1.000000000000000E+06              /* I =  1: 50 */
(PID.TID 0000.0001)     ;
(PID.TID 0000.0001) rAw =  /* rAw(1,:,1,:) ( m - cartesian, degrees - spherical ) */
(PID.TID 0000.0001)    26 @  1.000000000000000E+06              /* J =  1: 26 */
(PID.TID 0000.0001)     ;
(PID.TID 0000.0001) rAs =  /* rAs(:,1,:,1) ( m - cartesian, degrees - spherical ) */
(PID.TID 0000.0001)    50 @  1.000000000000000E+06              /* I =  1: 50 */
(PID.TID 0000.0001)     ;
(PID.TID 0000.0001) rAs =  /* rAs(1,:,1,:) ( m - cartesian, degrees - spherical ) */
(PID.TID 0000.0001)    26 @  1.000000000000000E+06              /* J =  1: 26 */
(PID.TID 0000.0001)     ;
(PID.TID 0000.0001) 
(PID.TID 0000.0001)  MDSREADFIELD: opening global file: thetaInitial.bin
(PID.TID 0000.0001) // =======================================================
(PID.TID 0000.0001) // Field Initial Temperature at iteration          1
(PID.TID 0000.0001) // CMIN =          1.697960818898681E+01
(PID.TID 0000.0001) // CMAX =          1.702039187270994E+01
(PID.TID 0000.0001) // CINT =          1.510506804560531E-03
(PID.TID 0000.0001) // SYMBOLS (CMIN->CMAX): -abcdefghijklmnopqrstuvwxyz+
(PID.TID 0000.0001) //                  0.0: .
(PID.TID 0000.0001) // RANGE I (Lo:Hi:Step):(   1:  50:   1)
(PID.TID 0000.0001) // RANGE J (Lo:Hi:Step):(  26:   1:  -1)
(PID.TID 0000.0001) // RANGE K (Lo:Hi:Step):(   1:   1:   1)
(PID.TID 0000.0001) // =======================================================
(PID.TID 0000.0001) K =   1
(PID.TID 0000.0001)                I=10      I=20      I=30      I=40      I=50
(PID.TID 0000.0001) |--J--|123456789|123456789|123456789|123456789|123456789|
(PID.TID 0000.0001)     26 ..................................................
(PID.TID 0000.0001)     25 --------------------------------------------------
(PID.TID 0000.0001)     24 --------------------------------------------------
(PID.TID 0000.0001)     23 --------------------------------------------------
(PID.TID 0000.0001)     22 --------------------------------------------------
(PID.TID 0000.0001)     21 --------------------------------------------------
(PID.TID 0000.0001)     20 --------------------------------------------------
(PID.TID 0000.0001)     19 --------------------------------------------------
(PID.TID 0000.0001)     18 --------------------------------------------------
(PID.TID 0000.0001)     17 --------------------------------------------------
(PID.TID 0000.0001)     16 aaaaaaaaaaaaaaaaaaaaaaaaaaaaaaaaaaaaaaaaaaaaaaaaaa
(PID.TID 0000.0001)     15 cccccccccccccccccccccccccccccccccccccccccccccccccc
(PID.TID 0000.0001)     14 gggggggggggggggggggggggggggggggggggggggggggggggggg
(PID.TID 0000.0001)     13 nnnnnnmnnnmnmmnmnnnnmnmmnmmnnnmnmnnmnnmmnnmmnmnmmn
(PID.TID 0000.0001)     12 tttttttttttttttttttttttttttttttttttttttttttttttttt
(PID.TID 0000.0001)     11 xxxxxxxxxxxxxxxxxxxxxxxxxxxxxxxxxxxxxxxxxxxxxxxxxx
(PID.TID 0000.0001)     10 zzzzzzzzzzzzzzzzzzzzzzzzzzzzzzzzzzzzzzzzzzzzzzzzzz
(PID.TID 0000.0001)      9 ++++++++++++++++++++++++++++++++++++++++++++++++++
(PID.TID 0000.0001)      8 ++++++++++++++++++++++++++++++++++++++++++++++++++
(PID.TID 0000.0001)      7 ++++++++++++++++++++++++++++++++++++++++++++++++++
(PID.TID 0000.0001)      6 ++++++++++++++++++++++++++++++++++++++++++++++++++
(PID.TID 0000.0001)      5 ++++++++++++++++++++++++++++++++++++++++++++++++++
(PID.TID 0000.0001)      4 ++++++++++++++++++++++++++++++++++++++++++++++++++
(PID.TID 0000.0001)      3 ++++++++++++++++++++++++++++++++++++++++++++++++++
(PID.TID 0000.0001)      2 ++++++++++++++++++++++++++++++++++++++++++++++++++
(PID.TID 0000.0001)      1 ++++++++++++++++++++++++++++++++++++++++++++++++++
(PID.TID 0000.0001) // =======================================================
(PID.TID 0000.0001) // END OF FIELD                                          =
(PID.TID 0000.0001) // =======================================================
(PID.TID 0000.0001) 
(PID.TID 0000.0001)  MDSREADFIELD: opening global file: spiceInitial.bin
(PID.TID 0000.0001) // =======================================================
(PID.TID 0000.0001) // Field Initial Salinity at iteration          1
(PID.TID 0000.0001) // CMIN =          1.697961298285419E+01
(PID.TID 0000.0001) // CMAX =          1.702038710930990E+01
(PID.TID 0000.0001) // CINT =          1.510152831693316E-03
(PID.TID 0000.0001) // SYMBOLS (CMIN->CMAX): -abcdefghijklmnopqrstuvwxyz+
(PID.TID 0000.0001) //                  0.0: .
(PID.TID 0000.0001) // RANGE I (Lo:Hi:Step):(   1:  50:   1)
(PID.TID 0000.0001) // RANGE J (Lo:Hi:Step):(  26:   1:  -1)
(PID.TID 0000.0001) // RANGE K (Lo:Hi:Step):(   1:   1:   1)
(PID.TID 0000.0001) // =======================================================
(PID.TID 0000.0001) K =   1
(PID.TID 0000.0001)                I=10      I=20      I=30      I=40      I=50
(PID.TID 0000.0001) |--J--|123456789|123456789|123456789|123456789|123456789|
(PID.TID 0000.0001)     26 ..................................................
(PID.TID 0000.0001)     25 +++++++++zxtmgca------------------acgmtxz+++++++++
(PID.TID 0000.0001)     24 +++++++++zxtmgca------------------acgmtxz+++++++++
(PID.TID 0000.0001)     23 +++++++++zxtmgca------------------acgmtxz+++++++++
(PID.TID 0000.0001)     22 +++++++++zxtmgca------------------acgmtxz+++++++++
(PID.TID 0000.0001)     21 +++++++++zxtmgca------------------acgmtxz+++++++++
(PID.TID 0000.0001)     20 +++++++++zxtmgca------------------acgmtxz+++++++++
(PID.TID 0000.0001)     19 +++++++++zxtmgca------------------acgmtxz+++++++++
(PID.TID 0000.0001)     18 +++++++++zxtmgca------------------acgmtxz+++++++++
(PID.TID 0000.0001)     17 +++++++++zxtmgca------------------acgmtxz+++++++++
(PID.TID 0000.0001)     16 +++++++++zxtmgca------------------acgmtxz+++++++++
(PID.TID 0000.0001)     15 +++++++++zxtmgca------------------acgmtxz+++++++++
(PID.TID 0000.0001)     14 +++++++++zxtmgca------------------acgmtxz+++++++++
(PID.TID 0000.0001)     13 +++++++++zxtmgca------------------acgmtxz+++++++++
(PID.TID 0000.0001)     12 +++++++++zxtmgca------------------acgmtxz+++++++++
(PID.TID 0000.0001)     11 +++++++++zxtmgca------------------acgmtxz+++++++++
(PID.TID 0000.0001)     10 +++++++++zxtmgca------------------acgmtxz+++++++++
(PID.TID 0000.0001)      9 +++++++++zxtmgca------------------acgmtxz+++++++++
(PID.TID 0000.0001)      8 +++++++++zxtmgca------------------acgmtxz+++++++++
(PID.TID 0000.0001)      7 +++++++++zxtmgca------------------acgmtxz+++++++++
(PID.TID 0000.0001)      6 +++++++++zxtmgca------------------acgmtxz+++++++++
(PID.TID 0000.0001)      5 +++++++++zxtmgca------------------acgmtxz+++++++++
(PID.TID 0000.0001)      4 +++++++++zxtmgca------------------acgmtxz+++++++++
(PID.TID 0000.0001)      3 +++++++++zxtmgca------------------acgmtxz+++++++++
(PID.TID 0000.0001)      2 +++++++++zxtmgca------------------acgmtxz+++++++++
(PID.TID 0000.0001)      1 +++++++++zxtmgca------------------acgmtxz+++++++++
(PID.TID 0000.0001) // =======================================================
(PID.TID 0000.0001) // END OF FIELD                                          =
(PID.TID 0000.0001) // =======================================================
(PID.TID 0000.0001) 
(PID.TID 0000.0001) Start initial hydrostatic pressure computation
(PID.TID 0000.0001) Pressure is predetermined for buoyancyRelation OCEANIC
(PID.TID 0000.0001) 
(PID.TID 0000.0001) // =======================================================
(PID.TID 0000.0001) // Model current state
(PID.TID 0000.0001) // =======================================================
(PID.TID 0000.0001) 
(PID.TID 0000.0001) // =======================================================
(PID.TID 0000.0001) // Begin MONITOR dynamic field statistics
(PID.TID 0000.0001) // =======================================================
(PID.TID 0000.0001) %MON time_tsnumber                =                     0
(PID.TID 0000.0001) %MON time_secondsf                =   0.0000000000000E+00
(PID.TID 0000.0001) %MON dynstat_eta_max              =   0.0000000000000E+00
(PID.TID 0000.0001) %MON dynstat_eta_min              =   0.0000000000000E+00
(PID.TID 0000.0001) %MON dynstat_eta_mean             =   0.0000000000000E+00
(PID.TID 0000.0001) %MON dynstat_eta_sd               =   0.0000000000000E+00
(PID.TID 0000.0001) %MON dynstat_eta_del2             =   0.0000000000000E+00
(PID.TID 0000.0001) %MON dynstat_uvel_max             =   0.0000000000000E+00
(PID.TID 0000.0001) %MON dynstat_uvel_min             =   0.0000000000000E+00
(PID.TID 0000.0001) %MON dynstat_uvel_mean            =   0.0000000000000E+00
(PID.TID 0000.0001) %MON dynstat_uvel_sd              =   0.0000000000000E+00
(PID.TID 0000.0001) %MON dynstat_uvel_del2            =   0.0000000000000E+00
(PID.TID 0000.0001) %MON dynstat_vvel_max             =   0.0000000000000E+00
(PID.TID 0000.0001) %MON dynstat_vvel_min             =   0.0000000000000E+00
(PID.TID 0000.0001) %MON dynstat_vvel_mean            =   0.0000000000000E+00
(PID.TID 0000.0001) %MON dynstat_vvel_sd              =   0.0000000000000E+00
(PID.TID 0000.0001) %MON dynstat_vvel_del2            =   0.0000000000000E+00
(PID.TID 0000.0001) %MON dynstat_wvel_max             =   0.0000000000000E+00
(PID.TID 0000.0001) %MON dynstat_wvel_min             =   0.0000000000000E+00
(PID.TID 0000.0001) %MON dynstat_wvel_mean            =   0.0000000000000E+00
(PID.TID 0000.0001) %MON dynstat_wvel_sd              =   0.0000000000000E+00
(PID.TID 0000.0001) %MON dynstat_wvel_del2            =   0.0000000000000E+00
(PID.TID 0000.0001) %MON dynstat_theta_max            =   1.7020391872710E+01
(PID.TID 0000.0001) %MON dynstat_theta_min            =   1.6979608188987E+01
(PID.TID 0000.0001) %MON dynstat_theta_mean           =   1.6999999951796E+01
(PID.TID 0000.0001) %MON dynstat_theta_sd             =   1.8685323590466E-02
(PID.TID 0000.0001) %MON dynstat_theta_del2           =   1.8923397613303E-04
(PID.TID 0000.0001) %MON dynstat_salt_max             =   1.7020387109310E+01
(PID.TID 0000.0001) %MON dynstat_salt_min             =   1.6979612982854E+01
(PID.TID 0000.0001) %MON dynstat_salt_mean            =   1.7000000005831E+01
(PID.TID 0000.0001) %MON dynstat_salt_sd              =   1.8685329922586E-02
(PID.TID 0000.0001) %MON dynstat_salt_del2            =   1.8842697543015E-04
(PID.TID 0000.0001) %MON advcfl_uvel_max              =   0.0000000000000E+00
(PID.TID 0000.0001) %MON advcfl_vvel_max              =   0.0000000000000E+00
(PID.TID 0000.0001) %MON advcfl_wvel_max              =   0.0000000000000E+00
(PID.TID 0000.0001) %MON advcfl_W_hf_max              =   0.0000000000000E+00
(PID.TID 0000.0001) %MON pe_b_mean                    =   0.0000000000000E+00
(PID.TID 0000.0001) %MON ke_max                       =   0.0000000000000E+00
(PID.TID 0000.0001) %MON ke_mean                      =   0.0000000000000E+00
(PID.TID 0000.0001) %MON ke_vol                       =   2.5000000000000E+11
(PID.TID 0000.0001) %MON vort_r_min                   =   0.0000000000000E+00
(PID.TID 0000.0001) %MON vort_r_max                   =   0.0000000000000E+00
(PID.TID 0000.0001) %MON vort_a_mean                  =   7.2900000000000E-05
(PID.TID 0000.0001) %MON vort_a_sd                    =  -1.5279854090138E-21
(PID.TID 0000.0001) %MON vort_p_mean                  =   7.7363265306122E-05
(PID.TID 0000.0001) %MON vort_p_sd                    =   3.0922409111393E-05
(PID.TID 0000.0001) %MON surfExpan_theta_mean         =   0.0000000000000E+00
(PID.TID 0000.0001) %MON surfExpan_salt_mean          =   0.0000000000000E+00
(PID.TID 0000.0001) // =======================================================
(PID.TID 0000.0001) // End MONITOR dynamic field statistics
(PID.TID 0000.0001) // =======================================================
 cg2d: Sum(rhs),rhsMax =  -4.61909156757034E-14  6.56468600582941E-04
(PID.TID 0000.0001)                    cg2d_init_res =    1.48626964519167E+01
(PID.TID 0000.0001)                       cg2d_iters =    87
(PID.TID 0000.0001)                         cg2d_res =    7.06118400970811E-12
(PID.TID 0000.0001) // =======================================================
(PID.TID 0000.0001) // Begin MONITOR dynamic field statistics
(PID.TID 0000.0001) // =======================================================
(PID.TID 0000.0001) %MON time_tsnumber                =                     1
(PID.TID 0000.0001) %MON time_secondsf                =   1.2000000000000E+03
(PID.TID 0000.0001) %MON dynstat_eta_max              =   3.9842268071141E-04
(PID.TID 0000.0001) %MON dynstat_eta_min              =  -3.9842837043612E-04
(PID.TID 0000.0001) %MON dynstat_eta_mean             =  -1.7147758563096E-18
(PID.TID 0000.0001) %MON dynstat_eta_sd               =   3.6612608254614E-04
(PID.TID 0000.0001) %MON dynstat_eta_del2             =   3.7667288738548E-06
(PID.TID 0000.0001) %MON dynstat_uvel_max             =   2.2315490356453E-06
(PID.TID 0000.0001) %MON dynstat_uvel_min             =  -2.2323475667809E-06
(PID.TID 0000.0001) %MON dynstat_uvel_mean            =   8.5081770065826E-21
(PID.TID 0000.0001) %MON dynstat_uvel_sd              =   5.5728774979329E-07
(PID.TID 0000.0001) %MON dynstat_uvel_del2            =   5.0688460612198E-07
(PID.TID 0000.0001) %MON dynstat_vvel_max             =   2.1242623157435E-03
(PID.TID 0000.0001) %MON dynstat_vvel_min             =  -2.1611393741625E-03
(PID.TID 0000.0001) %MON dynstat_vvel_mean            =  -1.0578841014776E-05
(PID.TID 0000.0001) %MON dynstat_vvel_sd              =   4.5720682499468E-04
(PID.TID 0000.0001) %MON dynstat_vvel_del2            =   1.6397313636427E-05
(PID.TID 0000.0001) %MON dynstat_wvel_max             =   3.9331661790402E-05
(PID.TID 0000.0001) %MON dynstat_wvel_min             =  -3.9418748886642E-05
(PID.TID 0000.0001) %MON dynstat_wvel_mean            =   3.2704586437885E-23
(PID.TID 0000.0001) %MON dynstat_wvel_sd              =   1.2210114568747E-05
(PID.TID 0000.0001) %MON dynstat_wvel_del2            =   1.0244826288415E-06
(PID.TID 0000.0001) %MON dynstat_theta_max            =   1.7020391872709E+01
(PID.TID 0000.0001) %MON dynstat_theta_min            =   1.6979608188987E+01
(PID.TID 0000.0001) %MON dynstat_theta_mean           =   1.6999999917591E+01
(PID.TID 0000.0001) %MON dynstat_theta_sd             =   1.8685309706644E-02
(PID.TID 0000.0001) %MON dynstat_theta_del2           =   1.8924933377129E-04
(PID.TID 0000.0001) %MON dynstat_salt_max             =   1.7020387109310E+01
(PID.TID 0000.0001) %MON dynstat_salt_min             =   1.6979612982854E+01
(PID.TID 0000.0001) %MON dynstat_salt_mean            =   1.7000000005831E+01
(PID.TID 0000.0001) %MON dynstat_salt_sd              =   1.8685329918564E-02
(PID.TID 0000.0001) %MON dynstat_salt_del2            =   1.8842707866046E-04
(PID.TID 0000.0001) %MON advcfl_uvel_max              =   2.6788170801371E-06
(PID.TID 0000.0001) %MON advcfl_vvel_max              =   2.5933672489949E-03
(PID.TID 0000.0001) %MON advcfl_wvel_max              =   9.4604997327942E-03
(PID.TID 0000.0001) %MON advcfl_W_hf_max              =   9.4604997327942E-03
(PID.TID 0000.0001) %MON pe_b_mean                    =   3.2875347615623E-09
(PID.TID 0000.0001) %MON ke_max                       =   2.3327445399791E-06
(PID.TID 0000.0001) %MON ke_mean                      =   1.0039215178031E-07
(PID.TID 0000.0001) %MON ke_vol                       =   2.5000000000000E+11
(PID.TID 0000.0001) %MON vort_r_min                   =  -2.0535650422839E-09
(PID.TID 0000.0001) %MON vort_r_max                   =   2.0537052949132E-09
(PID.TID 0000.0001) %MON vort_a_mean                  =   7.2900000000000E-05
(PID.TID 0000.0001) %MON vort_a_sd                    =   1.4683340210353E-10
(PID.TID 0000.0001) %MON vort_p_mean                  =   7.7363265306122E-05
(PID.TID 0000.0001) %MON vort_p_sd                    =   3.0922409112957E-05
(PID.TID 0000.0001) %MON surfExpan_theta_mean         =   5.7008897736239E-09
(PID.TID 0000.0001) %MON surfExpan_salt_mean          =  -1.1711270286082E-14
(PID.TID 0000.0001) // =======================================================
(PID.TID 0000.0001) // End MONITOR dynamic field statistics
(PID.TID 0000.0001) // =======================================================
 cg2d: Sum(rhs),rhsMax =   5.51045754165758E-14  6.57694596601836E-04
(PID.TID 0000.0001)                    cg2d_init_res =    1.36668517188141E-01
(PID.TID 0000.0001)                       cg2d_iters =    74
(PID.TID 0000.0001)                         cg2d_res =    8.23328942107715E-12
(PID.TID 0000.0001) // =======================================================
(PID.TID 0000.0001) // Begin MONITOR dynamic field statistics
(PID.TID 0000.0001) // =======================================================
(PID.TID 0000.0001) %MON time_tsnumber                =                     2
(PID.TID 0000.0001) %MON time_secondsf                =   2.4000000000000E+03
(PID.TID 0000.0001) %MON dynstat_eta_max              =   4.1813944789651E-04
(PID.TID 0000.0001) %MON dynstat_eta_min              =  -4.1811697781553E-04
(PID.TID 0000.0001) %MON dynstat_eta_mean             =   1.5970383454578E-18
(PID.TID 0000.0001) %MON dynstat_eta_sd               =   3.8096000819052E-04
(PID.TID 0000.0001) %MON dynstat_eta_del2             =   3.8064131379346E-06
(PID.TID 0000.0001) %MON dynstat_uvel_max             =   2.8136903625695E-04
(PID.TID 0000.0001) %MON dynstat_uvel_min             =  -2.8624524569615E-04
(PID.TID 0000.0001) %MON dynstat_uvel_mean            =  -1.3502527510248E-06
(PID.TID 0000.0001) %MON dynstat_uvel_sd              =   5.7726591859530E-05
(PID.TID 0000.0001) %MON dynstat_uvel_del2            =   2.4441097966084E-06
(PID.TID 0000.0001) %MON dynstat_vvel_max             =   4.2252249441008E-03
(PID.TID 0000.0001) %MON dynstat_vvel_min             =  -4.2262496350383E-03
(PID.TID 0000.0001) %MON dynstat_vvel_mean            =  -4.7552984840425E-07
(PID.TID 0000.0001) %MON dynstat_vvel_sd              =   9.0908538509516E-04
(PID.TID 0000.0001) %MON dynstat_vvel_del2            =   3.1766242910327E-05
(PID.TID 0000.0001) %MON dynstat_wvel_max             =   7.6165748739909E-05
(PID.TID 0000.0001) %MON dynstat_wvel_min             =  -7.6315924303730E-05
(PID.TID 0000.0001) %MON dynstat_wvel_mean            =   5.9746638761021E-22
(PID.TID 0000.0001) %MON dynstat_wvel_sd              =   2.3902635303176E-05
(PID.TID 0000.0001) %MON dynstat_wvel_del2            =   1.9655134718497E-06
(PID.TID 0000.0001) %MON dynstat_theta_max            =   1.7020391872709E+01
(PID.TID 0000.0001) %MON dynstat_theta_min            =   1.6979608188987E+01
(PID.TID 0000.0001) %MON dynstat_theta_mean           =   1.6999999916205E+01
(PID.TID 0000.0001) %MON dynstat_theta_sd             =   1.8685282171640E-02
(PID.TID 0000.0001) %MON dynstat_theta_del2           =   1.8936634913407E-04
(PID.TID 0000.0001) %MON dynstat_salt_max             =   1.7020387109310E+01
(PID.TID 0000.0001) %MON dynstat_salt_min             =   1.6979612982854E+01
(PID.TID 0000.0001) %MON dynstat_salt_mean            =   1.7000000005831E+01
(PID.TID 0000.0001) %MON dynstat_salt_sd              =   1.8685329646070E-02
(PID.TID 0000.0001) %MON dynstat_salt_del2            =   1.8842849804787E-04
(PID.TID 0000.0001) %MON advcfl_uvel_max              =   3.4349429483538E-04
(PID.TID 0000.0001) %MON advcfl_vvel_max              =   5.0714995620459E-03
(PID.TID 0000.0001) %MON advcfl_wvel_max              =   1.8315821832895E-02
(PID.TID 0000.0001) %MON advcfl_W_hf_max              =   1.8315821832895E-02
(PID.TID 0000.0001) %MON pe_b_mean                    =   3.5593261952889E-09
(PID.TID 0000.0001) %MON ke_max                       =   8.9606181704412E-06
(PID.TID 0000.0001) %MON ke_mean                      =   3.9835659378578E-07
(PID.TID 0000.0001) %MON ke_vol                       =   2.5000000000000E+11
(PID.TID 0000.0001) %MON vort_r_min                   =  -9.6982968038562E-08
(PID.TID 0000.0001) %MON vort_r_max                   =   9.6945226081581E-08
(PID.TID 0000.0001) %MON vort_a_mean                  =   7.2900000000001E-05
(PID.TID 0000.0001) %MON vort_a_sd                    =   2.2814866068971E-08
(PID.TID 0000.0001) %MON vort_p_mean                  =   7.7363265306123E-05
(PID.TID 0000.0001) %MON vort_p_sd                    =   3.0922418046091E-05
(PID.TID 0000.0001) %MON surfExpan_theta_mean         =   2.3099127534352E-10
(PID.TID 0000.0001) %MON surfExpan_salt_mean          =  -6.7230954777840E-16
(PID.TID 0000.0001) // =======================================================
(PID.TID 0000.0001) // End MONITOR dynamic field statistics
(PID.TID 0000.0001) // =======================================================
 cg2d: Sum(rhs),rhsMax =   1.76128642920270E-16  6.57145444450303E-04
(PID.TID 0000.0001)                    cg2d_init_res =    6.84826415286217E-02
(PID.TID 0000.0001)                       cg2d_iters =    72
(PID.TID 0000.0001)                         cg2d_res =    8.48975747428363E-12
(PID.TID 0000.0001) // =======================================================
(PID.TID 0000.0001) // Begin MONITOR dynamic field statistics
(PID.TID 0000.0001) // =======================================================
(PID.TID 0000.0001) %MON time_tsnumber                =                     3
(PID.TID 0000.0001) %MON time_secondsf                =   3.6000000000000E+03
(PID.TID 0000.0001) %MON dynstat_eta_max              =   4.0840820678400E-04
(PID.TID 0000.0001) %MON dynstat_eta_min              =  -4.0831313412991E-04
(PID.TID 0000.0001) %MON dynstat_eta_mean             =   1.1982809783873E-17
(PID.TID 0000.0001) %MON dynstat_eta_sd               =   3.7405939644499E-04
(PID.TID 0000.0001) %MON dynstat_eta_del2             =   3.7853320281433E-06
(PID.TID 0000.0001) %MON dynstat_uvel_max             =   7.3402040932839E-04
(PID.TID 0000.0001) %MON dynstat_uvel_min             =  -7.3744547456777E-04
(PID.TID 0000.0001) %MON dynstat_uvel_mean            =  -9.5497345539062E-07
(PID.TID 0000.0001) %MON dynstat_uvel_sd              =   1.5244700305132E-04
(PID.TID 0000.0001) %MON dynstat_uvel_del2            =   5.6936061456186E-06
(PID.TID 0000.0001) %MON dynstat_vvel_max             =   6.2363631294191E-03
(PID.TID 0000.0001) %MON dynstat_vvel_min             =  -6.2351610424811E-03
(PID.TID 0000.0001) %MON dynstat_vvel_mean            =   2.2081159171682E-07
(PID.TID 0000.0001) %MON dynstat_vvel_sd              =   1.3498289502659E-03
(PID.TID 0000.0001) %MON dynstat_vvel_del2            =   4.6369103449063E-05
(PID.TID 0000.0001) %MON dynstat_wvel_max             =   1.1119980869399E-04
(PID.TID 0000.0001) %MON dynstat_wvel_min             =  -1.1140368695923E-04
(PID.TID 0000.0001) %MON dynstat_wvel_mean            =   9.0951906450253E-22
(PID.TID 0000.0001) %MON dynstat_wvel_sd              =   3.5222208465915E-05
(PID.TID 0000.0001) %MON dynstat_wvel_del2            =   2.8526569919424E-06
(PID.TID 0000.0001) %MON dynstat_theta_max            =   1.7020391872709E+01
(PID.TID 0000.0001) %MON dynstat_theta_min            =   1.6979608188987E+01
(PID.TID 0000.0001) %MON dynstat_theta_mean           =   1.6999999916850E+01
(PID.TID 0000.0001) %MON dynstat_theta_sd             =   1.8685241261760E-02
(PID.TID 0000.0001) %MON dynstat_theta_del2           =   1.8957772967347E-04
(PID.TID 0000.0001) %MON dynstat_salt_max             =   1.7020387109310E+01
(PID.TID 0000.0001) %MON dynstat_salt_min             =   1.6979612982854E+01
(PID.TID 0000.0001) %MON dynstat_salt_mean            =   1.7000000005831E+01
(PID.TID 0000.0001) %MON dynstat_salt_sd              =   1.8685328930363E-02
(PID.TID 0000.0001) %MON dynstat_salt_del2            =   1.8843214178859E-04
(PID.TID 0000.0001) %MON advcfl_uvel_max              =   8.8493456948133E-04
(PID.TID 0000.0001) %MON advcfl_vvel_max              =   7.4836357553029E-03
(PID.TID 0000.0001) %MON advcfl_wvel_max              =   2.6736884870216E-02
(PID.TID 0000.0001) %MON advcfl_W_hf_max              =   2.6736884870216E-02
(PID.TID 0000.0001) %MON pe_b_mean                    =   3.4315485964871E-09
(PID.TID 0000.0001) %MON ke_max                       =   1.9674891256354E-05
(PID.TID 0000.0001) %MON ke_mean                      =   8.8619885734902E-07
(PID.TID 0000.0001) %MON ke_vol                       =   2.5000000000000E+11
(PID.TID 0000.0001) %MON vort_r_min                   =  -2.4846964050940E-07
(PID.TID 0000.0001) %MON vort_r_max                   =   2.4871274917929E-07
(PID.TID 0000.0001) %MON vort_a_mean                  =   7.2900000000000E-05
(PID.TID 0000.0001) %MON vort_a_sd                    =   5.9399986543558E-08
(PID.TID 0000.0001) %MON vort_p_mean                  =   7.7363265306122E-05
(PID.TID 0000.0001) %MON vort_p_sd                    =   3.0922469665848E-05
(PID.TID 0000.0001) %MON surfExpan_theta_mean         =  -1.0737535027207E-10
(PID.TID 0000.0001) %MON surfExpan_salt_mean          =   2.8149760360355E-16
(PID.TID 0000.0001) // =======================================================
(PID.TID 0000.0001) // End MONITOR dynamic field statistics
(PID.TID 0000.0001) // =======================================================
 cg2d: Sum(rhs),rhsMax =  -1.12094144730235E-13  6.57181498117806E-04
(PID.TID 0000.0001)                    cg2d_init_res =    3.22941919839372E-02
(PID.TID 0000.0001)                       cg2d_iters =    73
(PID.TID 0000.0001)                         cg2d_res =    5.15821143495890E-12
(PID.TID 0000.0001) // =======================================================
(PID.TID 0000.0001) // Begin MONITOR dynamic field statistics
(PID.TID 0000.0001) // =======================================================
(PID.TID 0000.0001) %MON time_tsnumber                =                     4
(PID.TID 0000.0001) %MON time_secondsf                =   4.8000000000000E+03
(PID.TID 0000.0001) %MON dynstat_eta_max              =   4.0765807604519E-04
(PID.TID 0000.0001) %MON dynstat_eta_min              =  -4.0746304153844E-04
(PID.TID 0000.0001) %MON dynstat_eta_mean             =   1.2785520295822E-17
(PID.TID 0000.0001) %MON dynstat_eta_sd               =   3.7351515891820E-04
(PID.TID 0000.0001) %MON dynstat_eta_del2             =   3.7854531322124E-06
(PID.TID 0000.0001) %MON dynstat_uvel_max             =   1.3470137241808E-03
(PID.TID 0000.0001) %MON dynstat_uvel_min             =  -1.3503039215799E-03
(PID.TID 0000.0001) %MON dynstat_uvel_mean            =  -9.0623322366808E-07
(PID.TID 0000.0001) %MON dynstat_uvel_sd              =   2.8281940440411E-04
(PID.TID 0000.0001) %MON dynstat_uvel_del2            =   1.0018406747968E-05
(PID.TID 0000.0001) %MON dynstat_vvel_max             =   8.1669765261539E-03
(PID.TID 0000.0001) %MON dynstat_vvel_min             =  -8.1661560877168E-03
(PID.TID 0000.0001) %MON dynstat_vvel_mean            =   1.7638024529115E-08
(PID.TID 0000.0001) %MON dynstat_vvel_sd              =   1.7772053248733E-03
(PID.TID 0000.0001) %MON dynstat_vvel_del2            =   6.0234215863064E-05
(PID.TID 0000.0001) %MON dynstat_wvel_max             =   1.4426907889294E-04
(PID.TID 0000.0001) %MON dynstat_wvel_min             =  -1.4451786666618E-04
(PID.TID 0000.0001) %MON dynstat_wvel_mean            =   9.5584400272157E-22
(PID.TID 0000.0001) %MON dynstat_wvel_sd              =   4.6074369568856E-05
(PID.TID 0000.0001) %MON dynstat_wvel_del2            =   3.6842220902157E-06
(PID.TID 0000.0001) %MON dynstat_theta_max            =   1.7020391872709E+01
(PID.TID 0000.0001) %MON dynstat_theta_min            =   1.6979608188987E+01
(PID.TID 0000.0001) %MON dynstat_theta_mean           =   1.6999999916900E+01
(PID.TID 0000.0001) %MON dynstat_theta_sd             =   1.8685187263636E-02
(PID.TID 0000.0001) %MON dynstat_theta_del2           =   1.8985754665078E-04
(PID.TID 0000.0001) %MON dynstat_salt_max             =   1.7020387109310E+01
(PID.TID 0000.0001) %MON dynstat_salt_min             =   1.6979612982854E+01
(PID.TID 0000.0001) %MON dynstat_salt_mean            =   1.7000000005831E+01
(PID.TID 0000.0001) %MON dynstat_salt_sd              =   1.8685327599031E-02
(PID.TID 0000.0001) %MON dynstat_salt_del2            =   1.8843878872530E-04
(PID.TID 0000.0001) %MON advcfl_uvel_max              =   1.6203647058959E-03
(PID.TID 0000.0001) %MON advcfl_vvel_max              =   9.8003718313847E-03
(PID.TID 0000.0001) %MON advcfl_wvel_max              =   3.4684287999884E-02
(PID.TID 0000.0001) %MON advcfl_W_hf_max              =   3.4684287999884E-02
(PID.TID 0000.0001) %MON pe_b_mean                    =   3.4215704009199E-09
(PID.TID 0000.0001) %MON ke_max                       =   3.4159561624625E-05
(PID.TID 0000.0001) %MON ke_mean                      =   1.5560540265762E-06
(PID.TID 0000.0001) %MON ke_vol                       =   2.5000000000000E+11
(PID.TID 0000.0001) %MON vort_r_min                   =  -4.5066986670287E-07
(PID.TID 0000.0001) %MON vort_r_max                   =   4.5185154116899E-07
(PID.TID 0000.0001) %MON vort_a_mean                  =   7.2900000000000E-05
(PID.TID 0000.0001) %MON vort_a_sd                    =   1.0905519462875E-07
(PID.TID 0000.0001) %MON vort_p_mean                  =   7.7363265306122E-05
(PID.TID 0000.0001) %MON vort_p_sd                    =   3.0922613213270E-05
(PID.TID 0000.0001) %MON surfExpan_theta_mean         =  -8.4805006334189E-12
(PID.TID 0000.0001) %MON surfExpan_salt_mean          =  -5.2916059761086E-18
(PID.TID 0000.0001) // =======================================================
(PID.TID 0000.0001) // End MONITOR dynamic field statistics
(PID.TID 0000.0001) // =======================================================
 cg2d: Sum(rhs),rhsMax =  -6.92812777633445E-14  6.57159642562550E-04
(PID.TID 0000.0001)                    cg2d_init_res =    3.65287987057940E-02
(PID.TID 0000.0001)                       cg2d_iters =    73
(PID.TID 0000.0001)                         cg2d_res =    7.18122442122703E-12
(PID.TID 0000.0001) // =======================================================
(PID.TID 0000.0001) // Begin MONITOR dynamic field statistics
(PID.TID 0000.0001) // =======================================================
(PID.TID 0000.0001) %MON time_tsnumber                =                     5
(PID.TID 0000.0001) %MON time_secondsf                =   6.0000000000000E+03
(PID.TID 0000.0001) %MON dynstat_eta_max              =   4.0788996573201E-04
(PID.TID 0000.0001) %MON dynstat_eta_min              =  -4.0757725552614E-04
(PID.TID 0000.0001) %MON dynstat_eta_mean             =   8.9887107052045E-18
(PID.TID 0000.0001) %MON dynstat_eta_sd               =   3.7363115007351E-04
(PID.TID 0000.0001) %MON dynstat_eta_del2             =   3.7875256416130E-06
(PID.TID 0000.0001) %MON dynstat_uvel_max             =   2.1108810013025E-03
(PID.TID 0000.0001) %MON dynstat_uvel_min             =  -2.1142234466594E-03
(PID.TID 0000.0001) %MON dynstat_uvel_mean            =  -9.1350868294725E-07
(PID.TID 0000.0001) %MON dynstat_uvel_sd              =   4.4739902221968E-04
(PID.TID 0000.0001) %MON dynstat_uvel_del2            =   1.5342244501326E-05
(PID.TID 0000.0001) %MON dynstat_vvel_max             =   1.0008659886916E-02
(PID.TID 0000.0001) %MON dynstat_vvel_min             =  -1.0007653325232E-02
(PID.TID 0000.0001) %MON dynstat_vvel_mean            =  -3.8021158649938E-09
(PID.TID 0000.0001) %MON dynstat_vvel_sd              =   2.1882755567915E-03
(PID.TID 0000.0001) %MON dynstat_vvel_del2            =   7.3633255137069E-05
(PID.TID 0000.0001) %MON dynstat_wvel_max             =   1.7667775909701E-04
(PID.TID 0000.0001) %MON dynstat_wvel_min             =  -1.7645738763923E-04
(PID.TID 0000.0001) %MON dynstat_wvel_mean            =   3.8882781719309E-22
(PID.TID 0000.0001) %MON dynstat_wvel_sd              =   5.6397726099152E-05
(PID.TID 0000.0001) %MON dynstat_wvel_del2            =   4.4603372537160E-06
(PID.TID 0000.0001) %MON dynstat_theta_max            =   1.7020391872709E+01
(PID.TID 0000.0001) %MON dynstat_theta_min            =   1.6979608188987E+01
(PID.TID 0000.0001) %MON dynstat_theta_mean           =   1.6999999916890E+01
(PID.TID 0000.0001) %MON dynstat_theta_sd             =   1.8685120504586E-02
(PID.TID 0000.0001) %MON dynstat_theta_del2           =   1.9019526428742E-04
(PID.TID 0000.0001) %MON dynstat_salt_max             =   1.7020387109310E+01
(PID.TID 0000.0001) %MON dynstat_salt_min             =   1.6979612982854E+01
(PID.TID 0000.0001) %MON dynstat_salt_mean            =   1.7000000005831E+01
(PID.TID 0000.0001) %MON dynstat_salt_sd              =   1.8685325485941E-02
(PID.TID 0000.0001) %MON dynstat_salt_del2            =   1.8844918053728E-04
(PID.TID 0000.0001) %MON advcfl_uvel_max              =   2.5370681359913E-03
(PID.TID 0000.0001) %MON advcfl_vvel_max              =   1.2010391864299E-02
(PID.TID 0000.0001) %MON advcfl_wvel_max              =   4.2402662183282E-02
(PID.TID 0000.0001) %MON advcfl_W_hf_max              =   4.2402662183282E-02
(PID.TID 0000.0001) %MON pe_b_mean                    =   3.4236957953864E-09
(PID.TID 0000.0001) %MON ke_max                       =   5.2110831040971E-05
(PID.TID 0000.0001) %MON ke_mean                      =   2.3985873177741E-06
(PID.TID 0000.0001) %MON ke_vol                       =   2.5000000000000E+11
(PID.TID 0000.0001) %MON vort_r_min                   =  -6.9882127937104E-07
(PID.TID 0000.0001) %MON vort_r_max                   =   7.0201219263837E-07
(PID.TID 0000.0001) %MON vort_a_mean                  =   7.2900000000000E-05
(PID.TID 0000.0001) %MON vort_a_sd                    =   1.7095344526451E-07
(PID.TID 0000.0001) %MON vort_p_mean                  =   7.7363265306122E-05
(PID.TID 0000.0001) %MON vort_p_sd                    =   3.0922910635362E-05
(PID.TID 0000.0001) %MON surfExpan_theta_mean         =   1.7949309050137E-12
(PID.TID 0000.0001) %MON surfExpan_salt_mean          =  -4.0110698353921E-17
(PID.TID 0000.0001) // =======================================================
(PID.TID 0000.0001) // End MONITOR dynamic field statistics
(PID.TID 0000.0001) // =======================================================
 cg2d: Sum(rhs),rhsMax =  -1.81523632930558E-14  6.56985775681073E-04
(PID.TID 0000.0001)                    cg2d_init_res =    3.79056901536614E-02
(PID.TID 0000.0001)                       cg2d_iters =    73
(PID.TID 0000.0001)                         cg2d_res =    8.99050760445124E-12
(PID.TID 0000.0001) // =======================================================
(PID.TID 0000.0001) // Begin MONITOR dynamic field statistics
(PID.TID 0000.0001) // =======================================================
(PID.TID 0000.0001) %MON time_tsnumber                =                     6
(PID.TID 0000.0001) %MON time_secondsf                =   7.2000000000000E+03
(PID.TID 0000.0001) %MON dynstat_eta_max              =   4.0797415243127E-04
(PID.TID 0000.0001) %MON dynstat_eta_min              =  -4.0753706107336E-04
(PID.TID 0000.0001) %MON dynstat_eta_mean             =   6.2985265136817E-18
(PID.TID 0000.0001) %MON dynstat_eta_sd               =   3.7364373109482E-04
(PID.TID 0000.0001) %MON dynstat_eta_del2             =   3.7890335994591E-06
(PID.TID 0000.0001) %MON dynstat_uvel_max             =   3.0147657998020E-03
(PID.TID 0000.0001) %MON dynstat_uvel_min             =  -3.0181523096072E-03
(PID.TID 0000.0001) %MON dynstat_uvel_mean            =  -9.1475557321309E-07
(PID.TID 0000.0001) %MON dynstat_uvel_sd              =   6.4447521068655E-04
(PID.TID 0000.0001) %MON dynstat_uvel_del2            =   2.1576673326967E-05
(PID.TID 0000.0001) %MON dynstat_vvel_max             =   1.1751522989871E-02
(PID.TID 0000.0001) %MON dynstat_vvel_min             =  -1.1750248176851E-02
(PID.TID 0000.0001) %MON dynstat_vvel_mean            =  -4.6430221980210E-10
(PID.TID 0000.0001) %MON dynstat_vvel_sd              =   2.5802391750372E-03
(PID.TID 0000.0001) %MON dynstat_vvel_del2            =   8.6510772792783E-05
(PID.TID 0000.0001) %MON dynstat_wvel_max             =   2.0764375595123E-04
(PID.TID 0000.0001) %MON dynstat_wvel_min             =  -2.0743217189693E-04
(PID.TID 0000.0001) %MON dynstat_wvel_mean            =  -8.4366709901592E-22
(PID.TID 0000.0001) %MON dynstat_wvel_sd              =   6.6138942536216E-05
(PID.TID 0000.0001) %MON dynstat_wvel_del2            =   5.1812109968528E-06
(PID.TID 0000.0001) %MON dynstat_theta_max            =   1.7020391872709E+01
(PID.TID 0000.0001) %MON dynstat_theta_min            =   1.6979608188987E+01
(PID.TID 0000.0001) %MON dynstat_theta_mean           =   1.6999999916889E+01
(PID.TID 0000.0001) %MON dynstat_theta_sd             =   1.8685041358965E-02
(PID.TID 0000.0001) %MON dynstat_theta_del2           =   1.9058193267752E-04
(PID.TID 0000.0001) %MON dynstat_salt_max             =   1.7020387109310E+01
(PID.TID 0000.0001) %MON dynstat_salt_min             =   1.6979612982854E+01
(PID.TID 0000.0001) %MON dynstat_salt_mean            =   1.7000000005831E+01
(PID.TID 0000.0001) %MON dynstat_salt_sd              =   1.8685322431439E-02
(PID.TID 0000.0001) %MON dynstat_salt_del2            =   1.8846399723465E-04
(PID.TID 0000.0001) %MON advcfl_uvel_max              =   3.6217827715286E-03
(PID.TID 0000.0001) %MON advcfl_vvel_max              =   1.4101827587845E-02
(PID.TID 0000.0001) %MON advcfl_wvel_max              =   4.9834501428295E-02
(PID.TID 0000.0001) %MON advcfl_W_hf_max              =   4.9834501428295E-02
(PID.TID 0000.0001) %MON pe_b_mean                    =   3.4239263667128E-09
(PID.TID 0000.0001) %MON ke_max                       =   7.3219021924027E-05
(PID.TID 0000.0001) %MON ke_mean                      =   3.4033389831742E-06
(PID.TID 0000.0001) %MON ke_vol                       =   2.5000000000000E+11
(PID.TID 0000.0001) %MON vort_r_min                   =  -9.8812895818639E-07
(PID.TID 0000.0001) %MON vort_r_max                   =   9.9456498104940E-07
(PID.TID 0000.0001) %MON vort_a_mean                  =   7.2900000000001E-05
(PID.TID 0000.0001) %MON vort_a_sd                    =   2.4419704781492E-07
(PID.TID 0000.0001) %MON vort_p_mean                  =   7.7363265306123E-05
(PID.TID 0000.0001) %MON vort_p_sd                    =   3.0923432411159E-05
(PID.TID 0000.0001) %MON surfExpan_theta_mean         =   1.7963523286586E-13
(PID.TID 0000.0001) %MON surfExpan_salt_mean          =  -3.4625717652476E-17
(PID.TID 0000.0001) // =======================================================
(PID.TID 0000.0001) // End MONITOR dynamic field statistics
(PID.TID 0000.0001) // =======================================================
 cg2d: Sum(rhs),rhsMax =  -8.90699731852240E-14  6.56585726779128E-04
(PID.TID 0000.0001)                    cg2d_init_res =    3.66529571214716E-02
(PID.TID 0000.0001)                       cg2d_iters =    74
(PID.TID 0000.0001)                         cg2d_res =    6.65067781245440E-12
(PID.TID 0000.0001) // =======================================================
(PID.TID 0000.0001) // Begin MONITOR dynamic field statistics
(PID.TID 0000.0001) // =======================================================
(PID.TID 0000.0001) %MON time_tsnumber                =                     7
(PID.TID 0000.0001) %MON time_secondsf                =   8.4000000000000E+03
(PID.TID 0000.0001) %MON dynstat_eta_max              =   4.0803072787848E-04
(PID.TID 0000.0001) %MON dynstat_eta_min              =  -4.0747516692528E-04
(PID.TID 0000.0001) %MON dynstat_eta_mean             =   1.3293031506656E-17
(PID.TID 0000.0001) %MON dynstat_eta_sd               =   3.7363858138439E-04
(PID.TID 0000.0001) %MON dynstat_eta_del2             =   3.7897520985549E-06
(PID.TID 0000.0001) %MON dynstat_uvel_max             =   4.0471509994090E-03
(PID.TID 0000.0001) %MON dynstat_uvel_min             =  -4.0504103224429E-03
(PID.TID 0000.0001) %MON dynstat_uvel_mean            =  -9.1465015132131E-07
(PID.TID 0000.0001) %MON dynstat_uvel_sd              =   8.7211724651555E-04
(PID.TID 0000.0001) %MON dynstat_uvel_del2            =   2.8626458736715E-05
(PID.TID 0000.0001) %MON dynstat_vvel_max             =   1.3386352400983E-02
(PID.TID 0000.0001) %MON dynstat_vvel_min             =  -1.3384814894948E-02
(PID.TID 0000.0001) %MON dynstat_vvel_mean            =   8.8044065038040E-11
(PID.TID 0000.0001) %MON dynstat_vvel_sd              =   2.9504660179552E-03
(PID.TID 0000.0001) %MON dynstat_vvel_del2            =   9.8690612532478E-05
(PID.TID 0000.0001) %MON dynstat_wvel_max             =   2.3681489000736E-04
(PID.TID 0000.0001) %MON dynstat_wvel_min             =  -2.3661904043233E-04
(PID.TID 0000.0001) %MON dynstat_wvel_mean            =   2.5784752163661E-21
(PID.TID 0000.0001) %MON dynstat_wvel_sd              =   7.5249221968834E-05
(PID.TID 0000.0001) %MON dynstat_wvel_del2            =   5.8474460005845E-06
(PID.TID 0000.0001) %MON dynstat_theta_max            =   1.7020391872709E+01
(PID.TID 0000.0001) %MON dynstat_theta_min            =   1.6979608188987E+01
(PID.TID 0000.0001) %MON dynstat_theta_mean           =   1.6999999916889E+01
(PID.TID 0000.0001) %MON dynstat_theta_sd             =   1.8684950254146E-02
(PID.TID 0000.0001) %MON dynstat_theta_del2           =   1.9100834616278E-04
(PID.TID 0000.0001) %MON dynstat_salt_max             =   1.7020387109310E+01
(PID.TID 0000.0001) %MON dynstat_salt_min             =   1.6979612982854E+01
(PID.TID 0000.0001) %MON dynstat_salt_mean            =   1.7000000005831E+01
(PID.TID 0000.0001) %MON dynstat_salt_sd              =   1.8685318283717E-02
(PID.TID 0000.0001) %MON dynstat_salt_del2            =   1.8848384074675E-04
(PID.TID 0000.0001) %MON advcfl_uvel_max              =   4.8604923869315E-03
(PID.TID 0000.0001) %MON advcfl_vvel_max              =   1.6063622881179E-02
(PID.TID 0000.0001) %MON advcfl_wvel_max              =   5.6835573601765E-02
(PID.TID 0000.0001) %MON advcfl_W_hf_max              =   5.6835573601765E-02
(PID.TID 0000.0001) %MON pe_b_mean                    =   3.4238319874615E-09
(PID.TID 0000.0001) %MON ke_max                       =   9.7163545201660E-05
(PID.TID 0000.0001) %MON ke_mean                      =   4.5588145312193E-06
(PID.TID 0000.0001) %MON ke_vol                       =   2.5000000000000E+11
(PID.TID 0000.0001) %MON vort_r_min                   =  -1.3137913026413E-06
(PID.TID 0000.0001) %MON vort_r_max                   =   1.3247662836525E-06
(PID.TID 0000.0001) %MON vort_a_mean                  =   7.2900000000000E-05
(PID.TID 0000.0001) %MON vort_a_sd                    =   3.2783606049908E-07
(PID.TID 0000.0001) %MON vort_p_mean                  =   7.7363265306123E-05
(PID.TID 0000.0001) %MON vort_p_sd                    =   3.0924253374899E-05
(PID.TID 0000.0001) %MON surfExpan_theta_mean         =  -1.0016983849383E-13
(PID.TID 0000.0001) %MON surfExpan_salt_mean          =  -2.8776275988960E-17
(PID.TID 0000.0001) // =======================================================
(PID.TID 0000.0001) // End MONITOR dynamic field statistics
(PID.TID 0000.0001) // =======================================================
 cg2d: Sum(rhs),rhsMax =  -1.31714626185053E-13  6.55879575650594E-04
(PID.TID 0000.0001)                    cg2d_init_res =    3.43340902686079E-02
(PID.TID 0000.0001)                       cg2d_iters =    74
(PID.TID 0000.0001)                         cg2d_res =    8.26230547989686E-12
(PID.TID 0000.0001) // =======================================================
(PID.TID 0000.0001) // Begin MONITOR dynamic field statistics
(PID.TID 0000.0001) // =======================================================
(PID.TID 0000.0001) %MON time_tsnumber                =                     8
(PID.TID 0000.0001) %MON time_secondsf                =   9.6000000000000E+03
(PID.TID 0000.0001) %MON dynstat_eta_max              =   4.0807964393056E-04
(PID.TID 0000.0001) %MON dynstat_eta_min              =  -4.0742520240600E-04
(PID.TID 0000.0001) %MON dynstat_eta_mean             =   1.0985664264940E-17
(PID.TID 0000.0001) %MON dynstat_eta_sd               =   3.7363358564977E-04
(PID.TID 0000.0001) %MON dynstat_eta_del2             =   3.7893142514445E-06
(PID.TID 0000.0001) %MON dynstat_uvel_max             =   5.1955855944044E-03
(PID.TID 0000.0001) %MON dynstat_uvel_min             =  -5.1987753373577E-03
(PID.TID 0000.0001) %MON dynstat_uvel_mean            =  -9.1461808023538E-07
(PID.TID 0000.0001) %MON dynstat_uvel_sd              =   1.1281902162740E-03
(PID.TID 0000.0001) %MON dynstat_uvel_del2            =   3.6405452866767E-05
(PID.TID 0000.0001) %MON dynstat_vvel_max             =   1.4904612187983E-02
(PID.TID 0000.0001) %MON dynstat_vvel_min             =  -1.4902814389707E-02
(PID.TID 0000.0001) %MON dynstat_vvel_mean            =   5.2964623884426E-11
(PID.TID 0000.0001) %MON dynstat_vvel_sd              =   3.2965154694063E-03
(PID.TID 0000.0001) %MON dynstat_vvel_del2            =   1.1009774313629E-04
(PID.TID 0000.0001) %MON dynstat_wvel_max             =   2.6408139737102E-04
(PID.TID 0000.0001) %MON dynstat_wvel_min             =  -2.6390608655267E-04
(PID.TID 0000.0001) %MON dynstat_wvel_mean            =   1.9675680557259E-21
(PID.TID 0000.0001) %MON dynstat_wvel_sd              =   8.3685131752140E-05
(PID.TID 0000.0001) %MON dynstat_wvel_del2            =   6.4596375762241E-06
(PID.TID 0000.0001) %MON dynstat_theta_max            =   1.7020391872709E+01
(PID.TID 0000.0001) %MON dynstat_theta_min            =   1.6979608188987E+01
(PID.TID 0000.0001) %MON dynstat_theta_mean           =   1.6999999916890E+01
(PID.TID 0000.0001) %MON dynstat_theta_sd             =   1.8684847676023E-02
(PID.TID 0000.0001) %MON dynstat_theta_del2           =   1.9146525629509E-04
(PID.TID 0000.0001) %MON dynstat_salt_max             =   1.7020387109310E+01
(PID.TID 0000.0001) %MON dynstat_salt_min             =   1.6979612982854E+01
(PID.TID 0000.0001) %MON dynstat_salt_mean            =   1.7000000005831E+01
(PID.TID 0000.0001) %MON dynstat_salt_sd              =   1.8685312900149E-02
(PID.TID 0000.0001) %MON dynstat_salt_del2            =   1.8850925536770E-04
(PID.TID 0000.0001) %MON advcfl_uvel_max              =   6.2385304048292E-03
(PID.TID 0000.0001) %MON advcfl_vvel_max              =   1.7885534625580E-02
(PID.TID 0000.0001) %MON advcfl_wvel_max              =   6.3379535369044E-02
(PID.TID 0000.0001) %MON advcfl_W_hf_max              =   6.3379535369044E-02
(PID.TID 0000.0001) %MON pe_b_mean                    =   3.4237404313830E-09
(PID.TID 0000.0001) %MON ke_max                       =   1.2361061255449E-04
(PID.TID 0000.0001) %MON ke_mean                      =   5.8525738355281E-06
(PID.TID 0000.0001) %MON ke_vol                       =   2.5000000000000E+11
(PID.TID 0000.0001) %MON vort_r_min                   =  -1.6710223593637E-06
(PID.TID 0000.0001) %MON vort_r_max                   =   1.6876814274727E-06
(PID.TID 0000.0001) %MON vort_a_mean                  =   7.2900000000000E-05
(PID.TID 0000.0001) %MON vort_a_sd                    =   4.2087527974823E-07
(PID.TID 0000.0001) %MON vort_p_mean                  =   7.7363265306122E-05
(PID.TID 0000.0001) %MON vort_p_sd                    =   3.0925448619353E-05
(PID.TID 0000.0001) %MON surfExpan_theta_mean         =  -9.8173116470852E-14
(PID.TID 0000.0001) %MON surfExpan_salt_mean          =  -1.9670752294690E-17
(PID.TID 0000.0001) // =======================================================
(PID.TID 0000.0001) // End MONITOR dynamic field statistics
(PID.TID 0000.0001) // =======================================================
 cg2d: Sum(rhs),rhsMax =  -3.53183194495843E-14  6.54783723722189E-04
(PID.TID 0000.0001)                    cg2d_init_res =    3.43041892953940E-02
(PID.TID 0000.0001)                       cg2d_iters =    74
(PID.TID 0000.0001)                         cg2d_res =    9.70336836025261E-12
(PID.TID 0000.0001) // =======================================================
(PID.TID 0000.0001) // Begin MONITOR dynamic field statistics
(PID.TID 0000.0001) // =======================================================
(PID.TID 0000.0001) %MON time_tsnumber                =                     9
(PID.TID 0000.0001) %MON time_secondsf                =   1.0800000000000E+04
(PID.TID 0000.0001) %MON dynstat_eta_max              =   4.0811219843312E-04
(PID.TID 0000.0001) %MON dynstat_eta_min              =  -4.0739272616660E-04
(PID.TID 0000.0001) %MON dynstat_eta_mean             =   1.1431162261211E-17
(PID.TID 0000.0001) %MON dynstat_eta_sd               =   3.7362737229642E-04
(PID.TID 0000.0001) %MON dynstat_eta_del2             =   3.7873287182100E-06
(PID.TID 0000.0001) %MON dynstat_uvel_max             =   6.4471104116102E-03
(PID.TID 0000.0001) %MON dynstat_uvel_min             =  -6.4502741941118E-03
(PID.TID 0000.0001) %MON dynstat_uvel_mean            =  -9.1461432584868E-07
(PID.TID 0000.0001) %MON dynstat_uvel_sd              =   1.4103725418825E-03
(PID.TID 0000.0001) %MON dynstat_uvel_del2            =   4.4814596322001E-05
(PID.TID 0000.0001) %MON dynstat_vvel_max             =   1.6298541197725E-02
(PID.TID 0000.0001) %MON dynstat_vvel_min             =  -1.6296486417779E-02
(PID.TID 0000.0001) %MON dynstat_vvel_mean            =   5.5040443115102E-11
(PID.TID 0000.0001) %MON dynstat_vvel_sd              =   3.6161555166707E-03
(PID.TID 0000.0001) %MON dynstat_vvel_del2            =   1.2069610969580E-04
(PID.TID 0000.0001) %MON dynstat_wvel_max             =   2.8935291871427E-04
(PID.TID 0000.0001) %MON dynstat_wvel_min             =  -2.8920127562733E-04
(PID.TID 0000.0001) %MON dynstat_wvel_mean            =  -2.8273601650182E-21
(PID.TID 0000.0001) %MON dynstat_wvel_sd              =   9.1409182398319E-05
(PID.TID 0000.0001) %MON dynstat_wvel_del2            =   7.0183381495725E-06
(PID.TID 0000.0001) %MON dynstat_theta_max            =   1.7020391872709E+01
(PID.TID 0000.0001) %MON dynstat_theta_min            =   1.6979608188987E+01
(PID.TID 0000.0001) %MON dynstat_theta_mean           =   1.6999999916890E+01
(PID.TID 0000.0001) %MON dynstat_theta_sd             =   1.8684734173655E-02
(PID.TID 0000.0001) %MON dynstat_theta_del2           =   1.9194345355667E-04
(PID.TID 0000.0001) %MON dynstat_salt_max             =   1.7020387109310E+01
(PID.TID 0000.0001) %MON dynstat_salt_min             =   1.6979612982854E+01
(PID.TID 0000.0001) %MON dynstat_salt_mean            =   1.7000000005831E+01
(PID.TID 0000.0001) %MON dynstat_salt_sd              =   1.8685306148394E-02
(PID.TID 0000.0001) %MON dynstat_salt_del2            =   1.8854068660094E-04
(PID.TID 0000.0001) %MON advcfl_uvel_max              =   7.7403290329342E-03
(PID.TID 0000.0001) %MON advcfl_vvel_max              =   1.9558249437270E-02
(PID.TID 0000.0001) %MON advcfl_wvel_max              =   6.9444700491424E-02
(PID.TID 0000.0001) %MON advcfl_W_hf_max              =   6.9444700491424E-02
(PID.TID 0000.0001) %MON pe_b_mean                    =   3.4236265618969E-09
(PID.TID 0000.0001) %MON ke_max                       =   1.5221398157523E-04
(PID.TID 0000.0001) %MON ke_mean                      =   7.2713345176667E-06
(PID.TID 0000.0001) %MON ke_vol                       =   2.5000000000000E+11
(PID.TID 0000.0001) %MON vort_r_min                   =  -2.0550798173873E-06
(PID.TID 0000.0001) %MON vort_r_max                   =   2.0781689594341E-06
(PID.TID 0000.0001) %MON vort_a_mean                  =   7.2900000000000E-05
(PID.TID 0000.0001) %MON vort_a_sd                    =   5.2228228204936E-07
(PID.TID 0000.0001) %MON vort_p_mean                  =   7.7363265306122E-05
(PID.TID 0000.0001) %MON vort_p_sd                    =   3.0927089610024E-05
(PID.TID 0000.0001) %MON surfExpan_theta_mean         =  -1.1199149290971E-13
(PID.TID 0000.0001) %MON surfExpan_salt_mean          =  -6.8059579980754E-18
(PID.TID 0000.0001) // =======================================================
(PID.TID 0000.0001) // End MONITOR dynamic field statistics
(PID.TID 0000.0001) // =======================================================
 cg2d: Sum(rhs),rhsMax =   3.33668639593276E-14  6.53212690887994E-04
(PID.TID 0000.0001)                    cg2d_init_res =    4.06585916060039E-02
(PID.TID 0000.0001)                       cg2d_iters =    75
(PID.TID 0000.0001)                         cg2d_res =    7.93257027920751E-12
(PID.TID 0000.0001) // =======================================================
(PID.TID 0000.0001) // Begin MONITOR dynamic field statistics
(PID.TID 0000.0001) // =======================================================
(PID.TID 0000.0001) %MON time_tsnumber                =                    10
(PID.TID 0000.0001) %MON time_secondsf                =   1.2000000000000E+04
(PID.TID 0000.0001) %MON dynstat_eta_max              =   4.0812063043732E-04
(PID.TID 0000.0001) %MON dynstat_eta_min              =  -4.0738432859147E-04
(PID.TID 0000.0001) %MON dynstat_eta_mean             =   1.7733164063838E-17
(PID.TID 0000.0001) %MON dynstat_eta_sd               =   3.7361923915805E-04
(PID.TID 0000.0001) %MON dynstat_eta_del2             =   3.7834380346369E-06
(PID.TID 0000.0001) %MON dynstat_uvel_max             =   7.7883675980179E-03
(PID.TID 0000.0001) %MON dynstat_uvel_min             =  -7.7916094425072E-03
(PID.TID 0000.0001) %MON dynstat_uvel_mean            =  -9.1460900040944E-07
(PID.TID 0000.0001) %MON dynstat_uvel_sd              =   1.7161753224995E-03
(PID.TID 0000.0001) %MON dynstat_uvel_del2            =   5.3749933997835E-05
(PID.TID 0000.0001) %MON dynstat_vvel_max             =   1.7561286027934E-02
(PID.TID 0000.0001) %MON dynstat_vvel_min             =  -1.7558979959997E-02
(PID.TID 0000.0001) %MON dynstat_vvel_mean            =   7.2584327981922E-11
(PID.TID 0000.0001) %MON dynstat_vvel_sd              =   3.9073799460215E-03
(PID.TID 0000.0001) %MON dynstat_vvel_del2            =   1.3045799491690E-04
(PID.TID 0000.0001) %MON dynstat_wvel_max             =   3.1255757632061E-04
(PID.TID 0000.0001) %MON dynstat_wvel_min             =  -3.1243142160874E-04
(PID.TID 0000.0001) %MON dynstat_wvel_mean            =  -6.7781379464242E-22
(PID.TID 0000.0001) %MON dynstat_wvel_sd              =   9.8390258903455E-05
(PID.TID 0000.0001) %MON dynstat_wvel_del2            =   7.5242727360267E-06
(PID.TID 0000.0001) %MON dynstat_theta_max            =   1.7020391872709E+01
(PID.TID 0000.0001) %MON dynstat_theta_min            =   1.6979608188987E+01
(PID.TID 0000.0001) %MON dynstat_theta_mean           =   1.6999999916891E+01
(PID.TID 0000.0001) %MON dynstat_theta_sd             =   1.8684610362725E-02
(PID.TID 0000.0001) %MON dynstat_theta_del2           =   1.9243347464627E-04
(PID.TID 0000.0001) %MON dynstat_salt_max             =   1.7020387109310E+01
(PID.TID 0000.0001) %MON dynstat_salt_min             =   1.6979612982854E+01
(PID.TID 0000.0001) %MON dynstat_salt_mean            =   1.7000000005831E+01
(PID.TID 0000.0001) %MON dynstat_salt_sd              =   1.8685297907392E-02
(PID.TID 0000.0001) %MON dynstat_salt_del2            =   1.8857848026902E-04
(PID.TID 0000.0001) %MON advcfl_uvel_max              =   9.3499313310086E-03
(PID.TID 0000.0001) %MON advcfl_vvel_max              =   2.1073543233521E-02
(PID.TID 0000.0001) %MON advcfl_wvel_max              =   7.5013818316947E-02
(PID.TID 0000.0001) %MON advcfl_W_hf_max              =   7.5013818316947E-02
(PID.TID 0000.0001) %MON pe_b_mean                    =   3.4234775121883E-09
(PID.TID 0000.0001) %MON ke_max                       =   1.8261660706204E-04
(PID.TID 0000.0001) %MON ke_mean                      =   8.8010859474669E-06
(PID.TID 0000.0001) %MON ke_vol                       =   2.5000000000000E+11
(PID.TID 0000.0001) %MON vort_r_min                   =  -2.4612932800021E-06
(PID.TID 0000.0001) %MON vort_r_max                   =   2.4908948317381E-06
(PID.TID 0000.0001) %MON vort_a_mean                  =   7.2900000000001E-05
(PID.TID 0000.0001) %MON vort_a_sd                    =   6.3099609667339E-07
(PID.TID 0000.0001) %MON vort_p_mean                  =   7.7363265306123E-05
(PID.TID 0000.0001) %MON vort_p_sd                    =   3.0929240629675E-05
(PID.TID 0000.0001) %MON surfExpan_theta_mean         =  -1.2899130654269E-13
(PID.TID 0000.0001) %MON surfExpan_salt_mean          =   9.3553781460616E-18
(PID.TID 0000.0001) // =======================================================
(PID.TID 0000.0001) // End MONITOR dynamic field statistics
(PID.TID 0000.0001) // =======================================================
 cg2d: Sum(rhs),rhsMax =  -3.29268405076244E-14  6.51079081466700E-04
(PID.TID 0000.0001)                    cg2d_init_res =    5.44384068288573E-02
(PID.TID 0000.0001)                       cg2d_iters =    75
(PID.TID 0000.0001)                         cg2d_res =    8.81564408075631E-12
(PID.TID 0000.0001) // =======================================================
(PID.TID 0000.0001) // Begin MONITOR dynamic field statistics
(PID.TID 0000.0001) // =======================================================
(PID.TID 0000.0001) %MON time_tsnumber                =                    11
(PID.TID 0000.0001) %MON time_secondsf                =   1.3200000000000E+04
(PID.TID 0000.0001) %MON dynstat_eta_max              =   4.0809797394783E-04
(PID.TID 0000.0001) %MON dynstat_eta_min              =  -4.0740699723925E-04
(PID.TID 0000.0001) %MON dynstat_eta_mean             =   1.2635062860977E-17
(PID.TID 0000.0001) %MON dynstat_eta_sd               =   3.7360891982475E-04
(PID.TID 0000.0001) %MON dynstat_eta_del2             =   3.7773367601175E-06
(PID.TID 0000.0001) %MON dynstat_uvel_max             =   9.2057289188671E-03
(PID.TID 0000.0001) %MON dynstat_uvel_min             =  -9.2090206565236E-03
(PID.TID 0000.0001) %MON dynstat_uvel_mean            =  -9.1460204995907E-07
(PID.TID 0000.0001) %MON dynstat_uvel_sd              =   2.0429631646058E-03
(PID.TID 0000.0001) %MON dynstat_uvel_del2            =   6.3110448347313E-05
(PID.TID 0000.0001) %MON dynstat_vvel_max             =   1.8687018823504E-02
(PID.TID 0000.0001) %MON dynstat_vvel_min             =  -1.8684488890875E-02
(PID.TID 0000.0001) %MON dynstat_vvel_mean            =   9.2358340578113E-11
(PID.TID 0000.0001) %MON dynstat_vvel_sd              =   4.1684234722093E-03
(PID.TID 0000.0001) %MON dynstat_vvel_del2            =   1.3936332623054E-04
(PID.TID 0000.0001) %MON dynstat_wvel_max             =   3.3364101094302E-04
(PID.TID 0000.0001) %MON dynstat_wvel_min             =  -3.3354114140749E-04
(PID.TID 0000.0001) %MON dynstat_wvel_mean            =  -6.6283197077692E-21
(PID.TID 0000.0001) %MON dynstat_wvel_sd              =   1.0460397510637E-04
(PID.TID 0000.0001) %MON dynstat_wvel_del2            =   7.9786547086493E-06
(PID.TID 0000.0001) %MON dynstat_theta_max            =   1.7020391872709E+01
(PID.TID 0000.0001) %MON dynstat_theta_min            =   1.6979608188987E+01
(PID.TID 0000.0001) %MON dynstat_theta_mean           =   1.6999999916892E+01
(PID.TID 0000.0001) %MON dynstat_theta_sd             =   1.8684476927520E-02
(PID.TID 0000.0001) %MON dynstat_theta_del2           =   1.9292613725213E-04
(PID.TID 0000.0001) %MON dynstat_salt_max             =   1.7020387109310E+01
(PID.TID 0000.0001) %MON dynstat_salt_min             =   1.6979612982854E+01
(PID.TID 0000.0001) %MON dynstat_salt_mean            =   1.7000000005831E+01
(PID.TID 0000.0001) %MON dynstat_salt_sd              =   1.8685288068309E-02
(PID.TID 0000.0001) %MON dynstat_salt_del2            =   1.8862289654934E-04
(PID.TID 0000.0001) %MON advcfl_uvel_max              =   1.1050824787828E-02
(PID.TID 0000.0001) %MON advcfl_vvel_max              =   2.2424422588204E-02
(PID.TID 0000.0001) %MON advcfl_wvel_max              =   8.0073842626325E-02
(PID.TID 0000.0001) %MON advcfl_W_hf_max              =   8.0073842626325E-02
(PID.TID 0000.0001) %MON pe_b_mean                    =   3.4232884024534E-09
(PID.TID 0000.0001) %MON ke_max                       =   2.1445348116347E-04
(PID.TID 0000.0001) %MON ke_mean                      =   1.0427211701176E-05
(PID.TID 0000.0001) %MON ke_vol                       =   2.5000000000000E+11
(PID.TID 0000.0001) %MON vort_r_min                   =  -2.8850918518355E-06
(PID.TID 0000.0001) %MON vort_r_max                   =   2.9203718742968E-06
(PID.TID 0000.0001) %MON vort_a_mean                  =   7.2899999999999E-05
(PID.TID 0000.0001) %MON vort_a_sd                    =   7.4593625280018E-07
(PID.TID 0000.0001) %MON vort_p_mean                  =   7.7363265306121E-05
(PID.TID 0000.0001) %MON vort_p_sd                    =   3.0931955657773E-05
(PID.TID 0000.0001) %MON surfExpan_theta_mean         =  -1.4044648059060E-13
(PID.TID 0000.0001) %MON surfExpan_salt_mean          =   2.7824328310634E-17
(PID.TID 0000.0001) // =======================================================
(PID.TID 0000.0001) // End MONITOR dynamic field statistics
(PID.TID 0000.0001) // =======================================================
 cg2d: Sum(rhs),rhsMax =  -7.09236272142255E-14  6.48294520298186E-04
(PID.TID 0000.0001)                    cg2d_init_res =    7.38476612772871E-02
(PID.TID 0000.0001)                       cg2d_iters =    75
(PID.TID 0000.0001)                         cg2d_res =    9.69688046101871E-12
(PID.TID 0000.0001) // =======================================================
(PID.TID 0000.0001) // Begin MONITOR dynamic field statistics
(PID.TID 0000.0001) // =======================================================
(PID.TID 0000.0001) %MON time_tsnumber                =                    12
(PID.TID 0000.0001) %MON time_secondsf                =   1.4400000000000E+04
(PID.TID 0000.0001) %MON dynstat_eta_max              =   4.0803770476010E-04
(PID.TID 0000.0001) %MON dynstat_eta_min              =  -4.0746728053820E-04
(PID.TID 0000.0001) %MON dynstat_eta_mean             =   3.2895562485091E-18
(PID.TID 0000.0001) %MON dynstat_eta_sd               =   3.7359621328860E-04
(PID.TID 0000.0001) %MON dynstat_eta_del2             =   3.7687862163015E-06
(PID.TID 0000.0001) %MON dynstat_uvel_max             =   1.0685378033463E-02
(PID.TID 0000.0001) %MON dynstat_uvel_min             =  -1.0688786134324E-02
(PID.TID 0000.0001) %MON dynstat_uvel_mean            =  -9.1459427870044E-07
(PID.TID 0000.0001) %MON dynstat_uvel_sd              =   2.3879762279086E-03
(PID.TID 0000.0001) %MON dynstat_uvel_del2            =   7.2792731756290E-05
(PID.TID 0000.0001) %MON dynstat_vvel_max             =   1.9671036559327E-02
(PID.TID 0000.0001) %MON dynstat_vvel_min             =  -1.9668448917226E-02
(PID.TID 0000.0001) %MON dynstat_vvel_mean            =   1.1411522372504E-10
(PID.TID 0000.0001) %MON dynstat_vvel_sd              =   4.3977746449752E-03
(PID.TID 0000.0001) %MON dynstat_vvel_del2            =   1.4739758972979E-04
(PID.TID 0000.0001) %MON dynstat_wvel_max             =   3.5256537758139E-04
(PID.TID 0000.0001) %MON dynstat_wvel_min             =  -3.5249177935851E-04
(PID.TID 0000.0001) %MON dynstat_wvel_mean            =  -7.2529849523357E-21
(PID.TID 0000.0001) %MON dynstat_wvel_sd              =   1.1003293843334E-04
(PID.TID 0000.0001) %MON dynstat_wvel_del2            =   8.3827993298870E-06
(PID.TID 0000.0001) %MON dynstat_theta_max            =   1.7020391872709E+01
(PID.TID 0000.0001) %MON dynstat_theta_min            =   1.6979608188987E+01
(PID.TID 0000.0001) %MON dynstat_theta_mean           =   1.6999999916893E+01
(PID.TID 0000.0001) %MON dynstat_theta_sd             =   1.8684334621158E-02
(PID.TID 0000.0001) %MON dynstat_theta_del2           =   1.9341252050656E-04
(PID.TID 0000.0001) %MON dynstat_salt_max             =   1.7020387109310E+01
(PID.TID 0000.0001) %MON dynstat_salt_min             =   1.6979612982854E+01
(PID.TID 0000.0001) %MON dynstat_salt_mean            =   1.7000000005831E+01
(PID.TID 0000.0001) %MON dynstat_salt_sd              =   1.8685276535307E-02
(PID.TID 0000.0001) %MON dynstat_salt_del2            =   1.8867408803602E-04
(PID.TID 0000.0001) %MON advcfl_uvel_max              =   1.2826543361188E-02
(PID.TID 0000.0001) %MON advcfl_vvel_max              =   2.3605243871192E-02
(PID.TID 0000.0001) %MON advcfl_wvel_max              =   8.4615690619534E-02
(PID.TID 0000.0001) %MON advcfl_W_hf_max              =   8.4615690619534E-02
(PID.TID 0000.0001) %MON pe_b_mean                    =   3.4230555525624E-09
(PID.TID 0000.0001) %MON ke_max                       =   2.4735551104383E-04
(PID.TID 0000.0001) %MON ke_mean                      =   1.2134618128203E-05
(PID.TID 0000.0001) %MON ke_vol                       =   2.5000000000000E+11
(PID.TID 0000.0001) %MON vort_r_min                   =  -3.3220308813725E-06
(PID.TID 0000.0001) %MON vort_r_max                   =   3.3610251593962E-06
(PID.TID 0000.0001) %MON vort_a_mean                  =   7.2900000000000E-05
(PID.TID 0000.0001) %MON vort_a_sd                    =   8.6601198470541E-07
(PID.TID 0000.0001) %MON vort_p_mean                  =   7.7363265306123E-05
(PID.TID 0000.0001) %MON vort_p_sd                    =   3.0935275770245E-05
(PID.TID 0000.0001) %MON surfExpan_theta_mean         =  -1.4391130540690E-13
(PID.TID 0000.0001) %MON surfExpan_salt_mean          =   4.7704495786180E-17
(PID.TID 0000.0001) // =======================================================
(PID.TID 0000.0001) // End MONITOR dynamic field statistics
(PID.TID 0000.0001) // =======================================================
 cg2d: Sum(rhs),rhsMax =   2.22890282619570E-15  6.44771424990755E-04
(PID.TID 0000.0001)                    cg2d_init_res =    9.70019784583337E-02
(PID.TID 0000.0001)                       cg2d_iters =    76
(PID.TID 0000.0001)                         cg2d_res =    8.53758190281694E-12
(PID.TID 0000.0001) // =======================================================
(PID.TID 0000.0001) // Begin MONITOR dynamic field statistics
(PID.TID 0000.0001) // =======================================================
(PID.TID 0000.0001) %MON time_tsnumber                =                    13
(PID.TID 0000.0001) %MON time_secondsf                =   1.5600000000000E+04
(PID.TID 0000.0001) %MON dynstat_eta_max              =   4.0793395973786E-04
(PID.TID 0000.0001) %MON dynstat_eta_min              =  -4.0757104220947E-04
(PID.TID 0000.0001) %MON dynstat_eta_mean             =   1.9421092944394E-17
(PID.TID 0000.0001) %MON dynstat_eta_sd               =   3.7358100842826E-04
(PID.TID 0000.0001) %MON dynstat_eta_del2             =   3.7617179458273E-06
(PID.TID 0000.0001) %MON dynstat_uvel_max             =   1.2213435098680E-02
(PID.TID 0000.0001) %MON dynstat_uvel_min             =  -1.2216979788561E-02
(PID.TID 0000.0001) %MON dynstat_uvel_mean            =  -9.1458604766032E-07
(PID.TID 0000.0001) %MON dynstat_uvel_sd              =   2.7483532050705E-03
(PID.TID 0000.0001) %MON dynstat_uvel_del2            =   8.2695293835713E-05
(PID.TID 0000.0001) %MON dynstat_vvel_max             =   2.0509838922945E-02
(PID.TID 0000.0001) %MON dynstat_vvel_min             =  -2.0507215870383E-02
(PID.TID 0000.0001) %MON dynstat_vvel_mean            =   1.3779975712509E-10
(PID.TID 0000.0001) %MON dynstat_vvel_sd              =   4.5941863972554E-03
(PID.TID 0000.0001) %MON dynstat_vvel_del2            =   1.5455226198960E-04
(PID.TID 0000.0001) %MON dynstat_wvel_max             =   3.6930828457421E-04
(PID.TID 0000.0001) %MON dynstat_wvel_min             =  -3.6926029789059E-04
(PID.TID 0000.0001) %MON dynstat_wvel_mean            =   3.4910758544145E-21
(PID.TID 0000.0001) %MON dynstat_wvel_sd              =   1.1466691022873E-04
(PID.TID 0000.0001) %MON dynstat_wvel_del2            =   8.7382419084745E-06
(PID.TID 0000.0001) %MON dynstat_theta_max            =   1.7020391872709E+01
(PID.TID 0000.0001) %MON dynstat_theta_min            =   1.6979608188987E+01
(PID.TID 0000.0001) %MON dynstat_theta_mean           =   1.6999999916894E+01
(PID.TID 0000.0001) %MON dynstat_theta_sd             =   1.8684184263915E-02
(PID.TID 0000.0001) %MON dynstat_theta_del2           =   1.9388442595569E-04
(PID.TID 0000.0001) %MON dynstat_salt_max             =   1.7020387109310E+01
(PID.TID 0000.0001) %MON dynstat_salt_min             =   1.6979612982853E+01
(PID.TID 0000.0001) %MON dynstat_salt_mean            =   1.7000000005831E+01
(PID.TID 0000.0001) %MON dynstat_salt_sd              =   1.8685263226258E-02
(PID.TID 0000.0001) %MON dynstat_salt_del2            =   1.8873209904231E-04
(PID.TID 0000.0001) %MON advcfl_uvel_max              =   1.4660375746274E-02
(PID.TID 0000.0001) %MON advcfl_vvel_max              =   2.4611806707534E-02
(PID.TID 0000.0001) %MON advcfl_wvel_max              =   8.8633988297810E-02
(PID.TID 0000.0001) %MON advcfl_W_hf_max              =   8.8633988297810E-02
(PID.TID 0000.0001) %MON pe_b_mean                    =   3.4227769307742E-09
(PID.TID 0000.0001) %MON ke_max                       =   2.8095417021376E-04
(PID.TID 0000.0001) %MON ke_mean                      =   1.3907866441454E-05
(PID.TID 0000.0001) %MON ke_vol                       =   2.5000000000000E+11
(PID.TID 0000.0001) %MON vort_r_min                   =  -3.7678179205973E-06
(PID.TID 0000.0001) %MON vort_r_max                   =   3.8072810990148E-06
(PID.TID 0000.0001) %MON vort_a_mean                  =   7.2900000000000E-05
(PID.TID 0000.0001) %MON vort_a_sd                    =   9.9013140105920E-07
(PID.TID 0000.0001) %MON vort_p_mean                  =   7.7363265306122E-05
(PID.TID 0000.0001) %MON vort_p_sd                    =   3.0939227122477E-05
(PID.TID 0000.0001) %MON surfExpan_theta_mean         =  -1.3727694532451E-13
(PID.TID 0000.0001) %MON surfExpan_salt_mean          =   6.7848320307199E-17
(PID.TID 0000.0001) // =======================================================
(PID.TID 0000.0001) // End MONITOR dynamic field statistics
(PID.TID 0000.0001) // =======================================================
 cg2d: Sum(rhs),rhsMax =   2.15671664555162E-14  6.40425525385660E-04
(PID.TID 0000.0001)                    cg2d_init_res =    1.22553474063058E-01
(PID.TID 0000.0001)                       cg2d_iters =    76
(PID.TID 0000.0001)                         cg2d_res =    9.30925402495710E-12
(PID.TID 0000.0001) // =======================================================
(PID.TID 0000.0001) // Begin MONITOR dynamic field statistics
(PID.TID 0000.0001) // =======================================================
(PID.TID 0000.0001) %MON time_tsnumber                =                    14
(PID.TID 0000.0001) %MON time_secondsf                =   1.6800000000000E+04
(PID.TID 0000.0001) %MON dynstat_eta_max              =   4.0778176377512E-04
(PID.TID 0000.0001) %MON dynstat_eta_min              =  -4.0772325691846E-04
(PID.TID 0000.0001) %MON dynstat_eta_mean             =   1.6537016453988E-17
(PID.TID 0000.0001) %MON dynstat_eta_sd               =   3.7356332176463E-04
(PID.TID 0000.0001) %MON dynstat_eta_del2             =   3.7640743580225E-06
(PID.TID 0000.0001) %MON dynstat_uvel_max             =   1.3776185456549E-02
(PID.TID 0000.0001) %MON dynstat_uvel_min             =  -1.3779873756835E-02
(PID.TID 0000.0001) %MON dynstat_uvel_mean            =  -9.1457779593503E-07
(PID.TID 0000.0001) %MON dynstat_uvel_sd              =   3.1211549449502E-03
(PID.TID 0000.0001) %MON dynstat_uvel_del2            =   9.2719233167707E-05
(PID.TID 0000.0001) %MON dynstat_vvel_max             =   2.1201180996096E-02
(PID.TID 0000.0001) %MON dynstat_vvel_min             =  -2.1198541750023E-02
(PID.TID 0000.0001) %MON dynstat_vvel_mean            =   1.6302001376580E-10
(PID.TID 0000.0001) %MON dynstat_vvel_sd              =   4.7566841386211E-03
(PID.TID 0000.0001) %MON dynstat_vvel_del2            =   1.6082454569254E-04
(PID.TID 0000.0001) %MON dynstat_wvel_max             =   3.8386168323295E-04
(PID.TID 0000.0001) %MON dynstat_wvel_min             =  -3.8383814497195E-04
(PID.TID 0000.0001) %MON dynstat_wvel_mean            =  -3.1076166759020E-21
(PID.TID 0000.0001) %MON dynstat_wvel_sd              =   1.1850285082618E-04
(PID.TID 0000.0001) %MON dynstat_wvel_del2            =   9.0468623379220E-06
(PID.TID 0000.0001) %MON dynstat_theta_max            =   1.7020391872709E+01
(PID.TID 0000.0001) %MON dynstat_theta_min            =   1.6979608188987E+01
(PID.TID 0000.0001) %MON dynstat_theta_mean           =   1.6999999916895E+01
(PID.TID 0000.0001) %MON dynstat_theta_sd             =   1.8684026739553E-02
(PID.TID 0000.0001) %MON dynstat_theta_del2           =   1.9433445191538E-04
(PID.TID 0000.0001) %MON dynstat_salt_max             =   1.7020387109310E+01
(PID.TID 0000.0001) %MON dynstat_salt_min             =   1.6979612982853E+01
(PID.TID 0000.0001) %MON dynstat_salt_mean            =   1.7000000005831E+01
(PID.TID 0000.0001) %MON dynstat_salt_sd              =   1.8685248073294E-02
(PID.TID 0000.0001) %MON dynstat_salt_del2            =   1.8879686419299E-04
(PID.TID 0000.0001) %MON advcfl_uvel_max              =   1.6535848508202E-02
(PID.TID 0000.0001) %MON advcfl_vvel_max              =   2.5441417195315E-02
(PID.TID 0000.0001) %MON advcfl_wvel_max              =   9.2126803975909E-02
(PID.TID 0000.0001) %MON advcfl_W_hf_max              =   9.2126803975909E-02
(PID.TID 0000.0001) %MON pe_b_mean                    =   3.4224528453958E-09
(PID.TID 0000.0001) %MON ke_max                       =   3.1488659705524E-04
(PID.TID 0000.0001) %MON ke_mean                      =   1.5731305630833E-05
(PID.TID 0000.0001) %MON ke_vol                       =   2.5000000000000E+11
(PID.TID 0000.0001) %MON vort_r_min                   =  -4.2183380214055E-06
(PID.TID 0000.0001) %MON vort_r_max                   =   4.2536751188756E-06
(PID.TID 0000.0001) %MON vort_a_mean                  =   7.2900000000000E-05
(PID.TID 0000.0001) %MON vort_a_sd                    =   1.1172104282620E-06
(PID.TID 0000.0001) %MON vort_p_mean                  =   7.7363265306122E-05
(PID.TID 0000.0001) %MON vort_p_sd                    =   3.0943819553223E-05
(PID.TID 0000.0001) %MON surfExpan_theta_mean         =  -1.1870426023790E-13
(PID.TID 0000.0001) %MON surfExpan_salt_mean          =   8.7176241578183E-17
(PID.TID 0000.0001) // =======================================================
(PID.TID 0000.0001) // End MONITOR dynamic field statistics
(PID.TID 0000.0001) // =======================================================
 cg2d: Sum(rhs),rhsMax =  -2.03761215799431E-13  6.37441076195316E-04
(PID.TID 0000.0001)                    cg2d_init_res =    1.48964712632961E-01
(PID.TID 0000.0001)                       cg2d_iters =    77
(PID.TID 0000.0001)                         cg2d_res =    9.11551715245716E-12
(PID.TID 0000.0001) // =======================================================
(PID.TID 0000.0001) // Begin MONITOR dynamic field statistics
(PID.TID 0000.0001) // =======================================================
(PID.TID 0000.0001) %MON time_tsnumber                =                    15
(PID.TID 0000.0001) %MON time_secondsf                =   1.8000000000000E+04
(PID.TID 0000.0001) %MON dynstat_eta_max              =   4.0757722207423E-04
(PID.TID 0000.0001) %MON dynstat_eta_min              =  -4.0792781931536E-04
(PID.TID 0000.0001) %MON dynstat_eta_mean             =   2.9718240399101E-17
(PID.TID 0000.0001) %MON dynstat_eta_sd               =   3.7354332087914E-04
(PID.TID 0000.0001) %MON dynstat_eta_del2             =   3.7685954094275E-06
(PID.TID 0000.0001) %MON dynstat_uvel_max             =   1.5360169945084E-02
(PID.TID 0000.0001) %MON dynstat_uvel_min             =  -1.5364006426177E-02
(PID.TID 0000.0001) %MON dynstat_uvel_mean            =  -9.1457006836851E-07
(PID.TID 0000.0001) %MON dynstat_uvel_sd              =   3.5033884285280E-03
(PID.TID 0000.0001) %MON dynstat_uvel_del2            =   1.0278531790981E-04
(PID.TID 0000.0001) %MON dynstat_vvel_max             =   2.1744097992049E-02
(PID.TID 0000.0001) %MON dynstat_vvel_min             =  -2.1741457800274E-02
(PID.TID 0000.0001) %MON dynstat_vvel_mean            =   1.8929476005278E-10
(PID.TID 0000.0001) %MON dynstat_vvel_sd              =   4.8845713537534E-03
(PID.TID 0000.0001) %MON dynstat_vvel_del2            =   1.6622438751621E-04
(PID.TID 0000.0001) %MON dynstat_wvel_max             =   3.9623075215331E-04
(PID.TID 0000.0001) %MON dynstat_wvel_min             =  -3.9623011527667E-04
(PID.TID 0000.0001) %MON dynstat_wvel_mean            =  -1.7747434614783E-22
(PID.TID 0000.0001) %MON dynstat_wvel_sd              =   1.2154484331725E-04
(PID.TID 0000.0001) %MON dynstat_wvel_del2            =   9.3108206785484E-06
(PID.TID 0000.0001) %MON dynstat_theta_max            =   1.7020391872709E+01
(PID.TID 0000.0001) %MON dynstat_theta_min            =   1.6979608188987E+01
(PID.TID 0000.0001) %MON dynstat_theta_mean           =   1.6999999916895E+01
(PID.TID 0000.0001) %MON dynstat_theta_sd             =   1.8683862989693E-02
(PID.TID 0000.0001) %MON dynstat_theta_del2           =   1.9475618076339E-04
(PID.TID 0000.0001) %MON dynstat_salt_max             =   1.7020387109310E+01
(PID.TID 0000.0001) %MON dynstat_salt_min             =   1.6979612982853E+01
(PID.TID 0000.0001) %MON dynstat_salt_mean            =   1.7000000005831E+01
(PID.TID 0000.0001) %MON dynstat_salt_sd              =   1.8685231023288E-02
(PID.TID 0000.0001) %MON dynstat_salt_del2            =   1.8886825925737E-04
(PID.TID 0000.0001) %MON advcfl_uvel_max              =   1.8436807711413E-02
(PID.TID 0000.0001) %MON advcfl_vvel_max              =   2.6092917590459E-02
(PID.TID 0000.0001) %MON advcfl_wvel_max              =   9.5095380516794E-02
(PID.TID 0000.0001) %MON advcfl_W_hf_max              =   9.5095380516794E-02
(PID.TID 0000.0001) %MON pe_b_mean                    =   3.4220863733630E-09
(PID.TID 0000.0001) %MON ke_max                       =   3.4880077359622E-04
(PID.TID 0000.0001) %MON ke_mean                      =   1.7589203567547E-05
(PID.TID 0000.0001) %MON ke_vol                       =   2.5000000000000E+11
(PID.TID 0000.0001) %MON vort_r_min                   =  -4.6696782108966E-06
(PID.TID 0000.0001) %MON vort_r_max                   =   4.6949700601935E-06
(PID.TID 0000.0001) %MON vort_a_mean                  =   7.2899999999999E-05
(PID.TID 0000.0001) %MON vort_a_sd                    =   1.2461813593542E-06
(PID.TID 0000.0001) %MON vort_p_mean                  =   7.7363265306122E-05
(PID.TID 0000.0001) %MON vort_p_sd                    =   3.0949045821652E-05
(PID.TID 0000.0001) %MON surfExpan_theta_mean         =  -8.6906541545803E-14
(PID.TID 0000.0001) %MON surfExpan_salt_mean          =   1.0503867599469E-16
(PID.TID 0000.0001) // =======================================================
(PID.TID 0000.0001) // End MONITOR dynamic field statistics
(PID.TID 0000.0001) // =======================================================
 cg2d: Sum(rhs),rhsMax =  -2.50931491297540E-13  6.36161811653156E-04
(PID.TID 0000.0001)                    cg2d_init_res =    1.74995281250204E-01
(PID.TID 0000.0001)                       cg2d_iters =    77
(PID.TID 0000.0001)                         cg2d_res =    9.69435657817633E-12
(PID.TID 0000.0001) // =======================================================
(PID.TID 0000.0001) // Begin MONITOR dynamic field statistics
(PID.TID 0000.0001) // =======================================================
(PID.TID 0000.0001) %MON time_tsnumber                =                    16
(PID.TID 0000.0001) %MON time_secondsf                =   1.9200000000000E+04
(PID.TID 0000.0001) %MON dynstat_eta_max              =   4.0731767397968E-04
(PID.TID 0000.0001) %MON dynstat_eta_min              =  -4.0818738981825E-04
(PID.TID 0000.0001) %MON dynstat_eta_mean             =   2.8286076222961E-17
(PID.TID 0000.0001) %MON dynstat_eta_sd               =   3.7352133670965E-04
(PID.TID 0000.0001) %MON dynstat_eta_del2             =   3.7743303099132E-06
(PID.TID 0000.0001) %MON dynstat_uvel_max             =   1.6952302573022E-02
(PID.TID 0000.0001) %MON dynstat_uvel_min             =  -1.6956289590354E-02
(PID.TID 0000.0001) %MON dynstat_uvel_mean            =  -9.1456348050019E-07
(PID.TID 0000.0001) %MON dynstat_uvel_sd              =   3.8920308170426E-03
(PID.TID 0000.0001) %MON dynstat_uvel_del2            =   1.1278911834291E-04
(PID.TID 0000.0001) %MON dynstat_vvel_max             =   2.2138899269080E-02
(PID.TID 0000.0001) %MON dynstat_vvel_min             =  -2.2136270147874E-02
(PID.TID 0000.0001) %MON dynstat_vvel_mean            =   2.1608828715151E-10
(PID.TID 0000.0001) %MON dynstat_vvel_sd              =   4.9774327303184E-03
(PID.TID 0000.0001) %MON dynstat_vvel_del2            =   1.7075752773824E-04
(PID.TID 0000.0001) %MON dynstat_wvel_max             =   4.0643287773564E-04
(PID.TID 0000.0001) %MON dynstat_wvel_min             =  -4.0645332280703E-04
(PID.TID 0000.0001) %MON dynstat_wvel_mean            =  -1.7983563785799E-21
(PID.TID 0000.0001) %MON dynstat_wvel_sd              =   1.2380389419171E-04
(PID.TID 0000.0001) %MON dynstat_wvel_del2            =   9.5326249918965E-06
(PID.TID 0000.0001) %MON dynstat_theta_max            =   1.7020391872709E+01
(PID.TID 0000.0001) %MON dynstat_theta_min            =   1.6979608188987E+01
(PID.TID 0000.0001) %MON dynstat_theta_mean           =   1.6999999916896E+01
(PID.TID 0000.0001) %MON dynstat_theta_sd             =   1.8683694006402E-02
(PID.TID 0000.0001) %MON dynstat_theta_del2           =   1.9514425790488E-04
(PID.TID 0000.0001) %MON dynstat_salt_max             =   1.7020387109310E+01
(PID.TID 0000.0001) %MON dynstat_salt_min             =   1.6979612982853E+01
(PID.TID 0000.0001) %MON dynstat_salt_mean            =   1.7000000005831E+01
(PID.TID 0000.0001) %MON dynstat_salt_sd              =   1.8685212038185E-02
(PID.TID 0000.0001) %MON dynstat_salt_del2            =   1.8894626083764E-04
(PID.TID 0000.0001) %MON advcfl_uvel_max              =   2.0347547508425E-02
(PID.TID 0000.0001) %MON advcfl_vvel_max              =   2.6566679122896E-02
(PID.TID 0000.0001) %MON advcfl_wvel_max              =   9.7548797473686E-02
(PID.TID 0000.0001) %MON advcfl_W_hf_max              =   9.7548797473686E-02
(PID.TID 0000.0001) %MON pe_b_mean                    =   3.4216835846698E-09
(PID.TID 0000.0001) %MON ke_max                       =   3.8236044411100E-04
(PID.TID 0000.0001) %MON ke_mean                      =   1.9465873919343E-05
(PID.TID 0000.0001) %MON ke_vol                       =   2.5000000000000E+11
(PID.TID 0000.0001) %MON vort_r_min                   =  -5.1181507207358E-06
(PID.TID 0000.0001) %MON vort_r_max                   =   5.1264528240344E-06
(PID.TID 0000.0001) %MON vort_a_mean                  =   7.2900000000000E-05
(PID.TID 0000.0001) %MON vort_a_sd                    =   1.3760008514235E-06
(PID.TID 0000.0001) %MON vort_p_mean                  =   7.7363265306122E-05
(PID.TID 0000.0001) %MON vort_p_sd                    =   3.0954881464381E-05
(PID.TID 0000.0001) %MON surfExpan_theta_mean         =  -4.1280070850494E-14
(PID.TID 0000.0001) %MON surfExpan_salt_mean          =   1.1921120282476E-16
(PID.TID 0000.0001) // =======================================================
(PID.TID 0000.0001) // End MONITOR dynamic field statistics
(PID.TID 0000.0001) // =======================================================
 cg2d: Sum(rhs),rhsMax =  -1.60233534340221E-13  6.36510673071814E-04
(PID.TID 0000.0001)                    cg2d_init_res =    1.99665297264558E-01
(PID.TID 0000.0001)                       cg2d_iters =    78
(PID.TID 0000.0001)                         cg2d_res =    7.94365426915153E-12
(PID.TID 0000.0001) // =======================================================
(PID.TID 0000.0001) // Begin MONITOR dynamic field statistics
(PID.TID 0000.0001) // =======================================================
(PID.TID 0000.0001) %MON time_tsnumber                =                    17
(PID.TID 0000.0001) %MON time_secondsf                =   2.0400000000000E+04
(PID.TID 0000.0001) %MON dynstat_eta_max              =   4.0700185283959E-04
(PID.TID 0000.0001) %MON dynstat_eta_min              =  -4.0850323472629E-04
(PID.TID 0000.0001) %MON dynstat_eta_mean             =   2.2630332701667E-17
(PID.TID 0000.0001) %MON dynstat_eta_sd               =   3.7349786292870E-04
(PID.TID 0000.0001) %MON dynstat_eta_del2             =   3.7811500659369E-06
(PID.TID 0000.0001) %MON dynstat_uvel_max             =   1.8539973546046E-02
(PID.TID 0000.0001) %MON dynstat_uvel_min             =  -1.8544111302150E-02
(PID.TID 0000.0001) %MON dynstat_uvel_mean            =  -9.1455868454149E-07
(PID.TID 0000.0001) %MON dynstat_uvel_sd              =   4.2840533123467E-03
(PID.TID 0000.0001) %MON dynstat_uvel_del2            =   1.2263378314173E-04
(PID.TID 0000.0001) %MON dynstat_vvel_max             =   2.2387139891941E-02
(PID.TID 0000.0001) %MON dynstat_vvel_min             =  -2.2384530754881E-02
(PID.TID 0000.0001) %MON dynstat_vvel_mean            =   2.4282072955907E-10
(PID.TID 0000.0001) %MON dynstat_vvel_sd              =   5.0351349789958E-03
(PID.TID 0000.0001) %MON dynstat_vvel_del2            =   1.7443916093566E-04
(PID.TID 0000.0001) %MON dynstat_wvel_max             =   4.1457211850429E-04
(PID.TID 0000.0001) %MON dynstat_wvel_min             =  -4.1461258743491E-04
(PID.TID 0000.0001) %MON dynstat_wvel_mean            =   6.1250036872369E-21
(PID.TID 0000.0001) %MON dynstat_wvel_sd              =   1.2529762807705E-04
(PID.TID 0000.0001) %MON dynstat_wvel_del2            =   9.7149355701574E-06
(PID.TID 0000.0001) %MON dynstat_theta_max            =   1.7020391872709E+01
(PID.TID 0000.0001) %MON dynstat_theta_min            =   1.6979608188987E+01
(PID.TID 0000.0001) %MON dynstat_theta_mean           =   1.6999999916896E+01
(PID.TID 0000.0001) %MON dynstat_theta_sd             =   1.8683520823203E-02
(PID.TID 0000.0001) %MON dynstat_theta_del2           =   1.9549446861265E-04
(PID.TID 0000.0001) %MON dynstat_salt_max             =   1.7020387109310E+01
(PID.TID 0000.0001) %MON dynstat_salt_min             =   1.6979612982853E+01
(PID.TID 0000.0001) %MON dynstat_salt_mean            =   1.7000000005831E+01
(PID.TID 0000.0001) %MON dynstat_salt_sd              =   1.8685191095337E-02
(PID.TID 0000.0001) %MON dynstat_salt_del2            =   1.8903065362191E-04
(PID.TID 0000.0001) %MON advcfl_uvel_max              =   2.2252933562579E-02
(PID.TID 0000.0001) %MON advcfl_vvel_max              =   2.6864567870330E-02
(PID.TID 0000.0001) %MON advcfl_wvel_max              =   9.9507020984379E-02
(PID.TID 0000.0001) %MON advcfl_W_hf_max              =   9.9507020984379E-02
(PID.TID 0000.0001) %MON pe_b_mean                    =   3.4212535298418E-09
(PID.TID 0000.0001) %MON ke_max                       =   4.1524943030566E-04
(PID.TID 0000.0001) %MON ke_mean                      =   2.1345797252942E-05
(PID.TID 0000.0001) %MON ke_vol                       =   2.5000000000000E+11
(PID.TID 0000.0001) %MON vort_r_min                   =  -5.5603143785987E-06
(PID.TID 0000.0001) %MON vort_r_max                   =   5.5435621864359E-06
(PID.TID 0000.0001) %MON vort_a_mean                  =   7.2900000000000E-05
(PID.TID 0000.0001) %MON vort_a_sd                    =   1.5056572505907E-06
(PID.TID 0000.0001) %MON vort_p_mean                  =   7.7363265306122E-05
(PID.TID 0000.0001) %MON vort_p_sd                    =   3.0961285237065E-05
(PID.TID 0000.0001) %MON surfExpan_theta_mean         =   1.7954929836004E-14
(PID.TID 0000.0001) %MON surfExpan_salt_mean          =   1.3177601757554E-16
(PID.TID 0000.0001) // =======================================================
(PID.TID 0000.0001) // End MONITOR dynamic field statistics
(PID.TID 0000.0001) // =======================================================
 cg2d: Sum(rhs),rhsMax =  -2.06055821277279E-13  6.39440363906792E-04
(PID.TID 0000.0001)                    cg2d_init_res =    2.21745856019318E-01
(PID.TID 0000.0001)                       cg2d_iters =    78
(PID.TID 0000.0001)                         cg2d_res =    8.10676619072360E-12
(PID.TID 0000.0001) // =======================================================
(PID.TID 0000.0001) // Begin MONITOR dynamic field statistics
(PID.TID 0000.0001) // =======================================================
(PID.TID 0000.0001) %MON time_tsnumber                =                    18
(PID.TID 0000.0001) %MON time_secondsf                =   2.1600000000000E+04
(PID.TID 0000.0001) %MON dynstat_eta_max              =   4.0662994248068E-04
(PID.TID 0000.0001) %MON dynstat_eta_min              =  -4.0887516979184E-04
(PID.TID 0000.0001) %MON dynstat_eta_mean             =   1.7468446882885E-17
(PID.TID 0000.0001) %MON dynstat_eta_sd               =   3.7347354029506E-04
(PID.TID 0000.0001) %MON dynstat_eta_del2             =   3.7888857684378E-06
(PID.TID 0000.0001) %MON dynstat_uvel_max             =   2.0111135923785E-02
(PID.TID 0000.0001) %MON dynstat_uvel_min             =  -2.0115422715473E-02
(PID.TID 0000.0001) %MON dynstat_uvel_mean            =  -9.1455632721083E-07
(PID.TID 0000.0001) %MON dynstat_uvel_sd              =   4.6764446048497E-03
(PID.TID 0000.0001) %MON dynstat_uvel_del2            =   1.3239382657666E-04
(PID.TID 0000.0001) %MON dynstat_vvel_max             =   2.2491561460818E-02
(PID.TID 0000.0001) %MON dynstat_vvel_min             =  -2.2488978130604E-02
(PID.TID 0000.0001) %MON dynstat_vvel_mean            =   2.6889050878200E-10
(PID.TID 0000.0001) %MON dynstat_vvel_sd              =   5.0578254773234E-03
(PID.TID 0000.0001) %MON dynstat_vvel_del2            =   1.7730020718434E-04
(PID.TID 0000.0001) %MON dynstat_wvel_max             =   4.2068690720947E-04
(PID.TID 0000.0001) %MON dynstat_wvel_min             =  -4.2074434824762E-04
(PID.TID 0000.0001) %MON dynstat_wvel_mean            =   2.5612164545485E-21
(PID.TID 0000.0001) %MON dynstat_wvel_sd              =   1.2604987792004E-04
(PID.TID 0000.0001) %MON dynstat_wvel_del2            =   9.8605740861510E-06
(PID.TID 0000.0001) %MON dynstat_theta_max            =   1.7020391872709E+01
(PID.TID 0000.0001) %MON dynstat_theta_min            =   1.6979608188987E+01
(PID.TID 0000.0001) %MON dynstat_theta_mean           =   1.6999999916896E+01
(PID.TID 0000.0001) %MON dynstat_theta_sd             =   1.8683344506257E-02
(PID.TID 0000.0001) %MON dynstat_theta_del2           =   1.9580377571654E-04
(PID.TID 0000.0001) %MON dynstat_salt_max             =   1.7020387109310E+01
(PID.TID 0000.0001) %MON dynstat_salt_min             =   1.6979612982853E+01
(PID.TID 0000.0001) %MON dynstat_salt_mean            =   1.7000000005831E+01
(PID.TID 0000.0001) %MON dynstat_salt_sd              =   1.8685168187555E-02
(PID.TID 0000.0001) %MON dynstat_salt_del2            =   1.8912104530432E-04
(PID.TID 0000.0001) %MON advcfl_uvel_max              =   2.4138507258568E-02
(PID.TID 0000.0001) %MON advcfl_vvel_max              =   2.6989873752981E-02
(PID.TID 0000.0001) %MON advcfl_wvel_max              =   1.0097864357943E-01
(PID.TID 0000.0001) %MON advcfl_W_hf_max              =   1.0097864357943E-01
(PID.TID 0000.0001) %MON pe_b_mean                    =   3.4208079519953E-09
(PID.TID 0000.0001) %MON ke_max                       =   4.4717512363985E-04
(PID.TID 0000.0001) %MON ke_mean                      =   2.3213734797670E-05
(PID.TID 0000.0001) %MON ke_vol                       =   2.5000000000000E+11
(PID.TID 0000.0001) %MON vort_r_min                   =  -5.9929929050756E-06
(PID.TID 0000.0001) %MON vort_r_max                   =   5.9922630241965E-06
(PID.TID 0000.0001) %MON vort_a_mean                  =   7.2900000000001E-05
(PID.TID 0000.0001) %MON vort_a_sd                    =   1.6341771783595E-06
(PID.TID 0000.0001) %MON vort_p_mean                  =   7.7363265306123E-05
(PID.TID 0000.0001) %MON vort_p_sd                    =   3.0968200087371E-05
(PID.TID 0000.0001) %MON surfExpan_theta_mean         =   8.9783152530614E-14
(PID.TID 0000.0001) %MON surfExpan_salt_mean          =   1.3894778741211E-16
(PID.TID 0000.0001) // =======================================================
(PID.TID 0000.0001) // End MONITOR dynamic field statistics
(PID.TID 0000.0001) // =======================================================
 cg2d: Sum(rhs),rhsMax =  -1.61938225416020E-13  6.43191259495788E-04
(PID.TID 0000.0001)                    cg2d_init_res =    2.41881627312452E-01
(PID.TID 0000.0001)                       cg2d_iters =    79
(PID.TID 0000.0001)                         cg2d_res =    7.06180399766122E-12
(PID.TID 0000.0001) // =======================================================
(PID.TID 0000.0001) // Begin MONITOR dynamic field statistics
(PID.TID 0000.0001) // =======================================================
(PID.TID 0000.0001) %MON time_tsnumber                =                    19
(PID.TID 0000.0001) %MON time_secondsf                =   2.2800000000000E+04
(PID.TID 0000.0001) %MON dynstat_eta_max              =   4.0620600819012E-04
(PID.TID 0000.0001) %MON dynstat_eta_min              =  -4.0929913056051E-04
(PID.TID 0000.0001) %MON dynstat_eta_mean             =   5.8061444396795E-18
(PID.TID 0000.0001) %MON dynstat_eta_sd               =   3.7344910969555E-04
(PID.TID 0000.0001) %MON dynstat_eta_del2             =   3.7973402835184E-06
(PID.TID 0000.0001) %MON dynstat_uvel_max             =   2.1654376601548E-02
(PID.TID 0000.0001) %MON dynstat_uvel_min             =  -2.1658807462611E-02
(PID.TID 0000.0001) %MON dynstat_uvel_mean            =  -9.1455701137501E-07
(PID.TID 0000.0001) %MON dynstat_uvel_sd              =   5.0662337080822E-03
(PID.TID 0000.0001) %MON dynstat_uvel_del2            =   1.4251834483644E-04
(PID.TID 0000.0001) %MON dynstat_vvel_max             =   2.2456013386960E-02
(PID.TID 0000.0001) %MON dynstat_vvel_min             =  -2.2453459017858E-02
(PID.TID 0000.0001) %MON dynstat_vvel_mean            =   2.9369699086487E-10
(PID.TID 0000.0001) %MON dynstat_vvel_sd              =   5.0458819240359E-03
(PID.TID 0000.0001) %MON dynstat_vvel_del2            =   1.7930101336160E-04
(PID.TID 0000.0001) %MON dynstat_wvel_max             =   4.2468870416104E-04
(PID.TID 0000.0001) %MON dynstat_wvel_min             =  -4.2475715247803E-04
(PID.TID 0000.0001) %MON dynstat_wvel_mean            =   5.6767693066701E-21
(PID.TID 0000.0001) %MON dynstat_wvel_sd              =   1.2608599611388E-04
(PID.TID 0000.0001) %MON dynstat_wvel_del2            =   9.9694465776707E-06
(PID.TID 0000.0001) %MON dynstat_theta_max            =   1.7020391872709E+01
(PID.TID 0000.0001) %MON dynstat_theta_min            =   1.6979608188987E+01
(PID.TID 0000.0001) %MON dynstat_theta_mean           =   1.6999999916895E+01
(PID.TID 0000.0001) %MON dynstat_theta_sd             =   1.8683166142618E-02
(PID.TID 0000.0001) %MON dynstat_theta_del2           =   1.9607032595813E-04
(PID.TID 0000.0001) %MON dynstat_salt_max             =   1.7020387109310E+01
(PID.TID 0000.0001) %MON dynstat_salt_min             =   1.6979612982853E+01
(PID.TID 0000.0001) %MON dynstat_salt_mean            =   1.7000000005831E+01
(PID.TID 0000.0001) %MON dynstat_salt_sd              =   1.8685143322869E-02
(PID.TID 0000.0001) %MON dynstat_salt_del2            =   1.8921656925716E-04
(PID.TID 0000.0001) %MON advcfl_uvel_max              =   2.5990568955133E-02
(PID.TID 0000.0001) %MON advcfl_vvel_max              =   2.6947216064352E-02
(PID.TID 0000.0001) %MON advcfl_wvel_max              =   1.0194171659473E-01
(PID.TID 0000.0001) %MON advcfl_W_hf_max              =   1.0194171659473E-01
(PID.TID 0000.0001) %MON pe_b_mean                    =   3.4203604254821E-09
(PID.TID 0000.0001) %MON ke_max                       =   4.7787101612759E-04
(PID.TID 0000.0001) %MON ke_mean                      =   2.5054606118491E-05
(PID.TID 0000.0001) %MON ke_vol                       =   2.5000000000000E+11
(PID.TID 0000.0001) %MON vort_r_min                   =  -6.4133746057048E-06
(PID.TID 0000.0001) %MON vort_r_max                   =   6.5119059021509E-06
(PID.TID 0000.0001) %MON vort_a_mean                  =   7.2900000000000E-05
(PID.TID 0000.0001) %MON vort_a_sd                    =   1.7606313533843E-06
(PID.TID 0000.0001) %MON vort_p_mean                  =   7.7363265306123E-05
(PID.TID 0000.0001) %MON vort_p_sd                    =   3.0975554592702E-05
(PID.TID 0000.0001) %MON surfExpan_theta_mean         =   1.7145905062652E-13
(PID.TID 0000.0001) %MON surfExpan_salt_mean          =  -1.5137733104234E-16
(PID.TID 0000.0001) // =======================================================
(PID.TID 0000.0001) // End MONITOR dynamic field statistics
(PID.TID 0000.0001) // =======================================================
 cg2d: Sum(rhs),rhsMax =  -7.92788686261592E-14  6.49576325698582E-04
(PID.TID 0000.0001)                    cg2d_init_res =    2.65989977876390E-01
(PID.TID 0000.0001)                       cg2d_iters =    78
(PID.TID 0000.0001)                         cg2d_res =    9.86895354351363E-12
(PID.TID 0000.0001) // =======================================================
(PID.TID 0000.0001) // Begin MONITOR dynamic field statistics
(PID.TID 0000.0001) // =======================================================
(PID.TID 0000.0001) %MON time_tsnumber                =                    20
(PID.TID 0000.0001) %MON time_secondsf                =   2.4000000000000E+04
(PID.TID 0000.0001) %MON dynstat_eta_max              =   4.0574080813987E-04
(PID.TID 0000.0001) %MON dynstat_eta_min              =  -4.0976435168791E-04
(PID.TID 0000.0001) %MON dynstat_eta_mean             =   5.0594318534714E-18
(PID.TID 0000.0001) %MON dynstat_eta_sd               =   3.7342532326444E-04
(PID.TID 0000.0001) %MON dynstat_eta_del2             =   3.8062894602813E-06
(PID.TID 0000.0001) %MON dynstat_uvel_max             =   2.3158971599310E-02
(PID.TID 0000.0001) %MON dynstat_uvel_min             =  -2.3163536949440E-02
(PID.TID 0000.0001) %MON dynstat_uvel_mean            =  -9.1456111513155E-07
(PID.TID 0000.0001) %MON dynstat_uvel_sd              =   5.4505076963419E-03
(PID.TID 0000.0001) %MON dynstat_uvel_del2            =   1.5281372004695E-04
(PID.TID 0000.0001) %MON dynstat_vvel_max             =   2.2285038962093E-02
(PID.TID 0000.0001) %MON dynstat_vvel_min             =  -2.2282535655952E-02
(PID.TID 0000.0001) %MON dynstat_vvel_mean            =   3.1664184151720E-10
(PID.TID 0000.0001) %MON dynstat_vvel_sd              =   4.9998190870929E-03
(PID.TID 0000.0001) %MON dynstat_vvel_del2            =   1.8031054965074E-04
(PID.TID 0000.0001) %MON dynstat_wvel_max             =   4.2633252304122E-04
(PID.TID 0000.0001) %MON dynstat_wvel_min             =  -4.2640851538567E-04
(PID.TID 0000.0001) %MON dynstat_wvel_mean            =  -1.2252720194059E-21
(PID.TID 0000.0001) %MON dynstat_wvel_sd              =   1.2542279398229E-04
(PID.TID 0000.0001) %MON dynstat_wvel_del2            =   1.0033724578808E-05
(PID.TID 0000.0001) %MON dynstat_theta_max            =   1.7020391872709E+01
(PID.TID 0000.0001) %MON dynstat_theta_min            =   1.6979608188987E+01
(PID.TID 0000.0001) %MON dynstat_theta_mean           =   1.6999999916894E+01
(PID.TID 0000.0001) %MON dynstat_theta_sd             =   1.8682986835171E-02
(PID.TID 0000.0001) %MON dynstat_theta_del2           =   1.9629343398526E-04
(PID.TID 0000.0001) %MON dynstat_salt_max             =   1.7020387109310E+01
(PID.TID 0000.0001) %MON dynstat_salt_min             =   1.6979612982853E+01
(PID.TID 0000.0001) %MON dynstat_salt_mean            =   1.7000000005831E+01
(PID.TID 0000.0001) %MON dynstat_salt_sd              =   1.8685116525089E-02
(PID.TID 0000.0001) %MON dynstat_salt_del2            =   1.8931642269251E-04
(PID.TID 0000.0001) %MON advcfl_uvel_max              =   2.7796244339329E-02
(PID.TID 0000.0001) %MON advcfl_vvel_max              =   2.6742046754511E-02
(PID.TID 0000.0001) %MON advcfl_wvel_max              =   1.0233804369256E-01
(PID.TID 0000.0001) %MON advcfl_W_hf_max              =   1.0233804369256E-01
(PID.TID 0000.0001) %MON pe_b_mean                    =   3.4199247271526E-09
(PID.TID 0000.0001) %MON ke_max                       =   5.0709458987716E-04
(PID.TID 0000.0001) %MON ke_mean                      =   2.6853149125909E-05
(PID.TID 0000.0001) %MON ke_vol                       =   2.5000000000000E+11
(PID.TID 0000.0001) %MON vort_r_min                   =  -6.8187695768901E-06
(PID.TID 0000.0001) %MON vort_r_max                   =   7.0262081350911E-06
(PID.TID 0000.0001) %MON vort_a_mean                  =   7.2900000000000E-05
(PID.TID 0000.0001) %MON vort_a_sd                    =   1.8841336508312E-06
(PID.TID 0000.0001) %MON vort_p_mean                  =   7.7363265306123E-05
(PID.TID 0000.0001) %MON vort_p_sd                    =   3.0983264400279E-05
(PID.TID 0000.0001) %MON surfExpan_theta_mean         =   2.5811375424107E-13
(PID.TID 0000.0001) %MON surfExpan_salt_mean          =  -2.7439442252155E-17
(PID.TID 0000.0001) // =======================================================
(PID.TID 0000.0001) // End MONITOR dynamic field statistics
(PID.TID 0000.0001) // =======================================================
 cg2d: Sum(rhs),rhsMax =  -1.52149885572495E-14  6.56752641612471E-04
(PID.TID 0000.0001)                    cg2d_init_res =    2.81579104876489E-01
(PID.TID 0000.0001)                       cg2d_iters =    78
(PID.TID 0000.0001)                         cg2d_res =    7.78089695120722E-12
(PID.TID 0000.0001) // =======================================================
(PID.TID 0000.0001) // Begin MONITOR dynamic field statistics
(PID.TID 0000.0001) // =======================================================
(PID.TID 0000.0001) %MON time_tsnumber                =                    21
(PID.TID 0000.0001) %MON time_secondsf                =   2.5200000000000E+04
(PID.TID 0000.0001) %MON dynstat_eta_max              =   4.0523179950378E-04
(PID.TID 0000.0001) %MON dynstat_eta_min              =  -4.1027338262342E-04
(PID.TID 0000.0001) %MON dynstat_eta_mean             =   2.5847697400216E-17
(PID.TID 0000.0001) %MON dynstat_eta_sd               =   3.7340305632687E-04
(PID.TID 0000.0001) %MON dynstat_eta_del2             =   3.8154834116007E-06
(PID.TID 0000.0001) %MON dynstat_uvel_max             =   2.4615021081671E-02
(PID.TID 0000.0001) %MON dynstat_uvel_min             =  -2.4619572875649E-02
(PID.TID 0000.0001) %MON dynstat_uvel_mean            =  -9.1456858327530E-07
(PID.TID 0000.0001) %MON dynstat_uvel_sd              =   5.8264225535616E-03
(PID.TID 0000.0001) %MON dynstat_uvel_del2            =   1.6309984043475E-04
(PID.TID 0000.0001) %MON dynstat_vvel_max             =   2.1983833932468E-02
(PID.TID 0000.0001) %MON dynstat_vvel_min             =  -2.1981376431867E-02
(PID.TID 0000.0001) %MON dynstat_vvel_mean            =   3.3713311096058E-10
(PID.TID 0000.0001) %MON dynstat_vvel_sd              =   4.9205699741917E-03
(PID.TID 0000.0001) %MON dynstat_vvel_del2            =   1.8034531455372E-04
(PID.TID 0000.0001) %MON dynstat_wvel_max             =   4.2565575747823E-04
(PID.TID 0000.0001) %MON dynstat_wvel_min             =  -4.2573826808404E-04
(PID.TID 0000.0001) %MON dynstat_wvel_mean            =   1.0852709721354E-21
(PID.TID 0000.0001) %MON dynstat_wvel_sd              =   1.2409480172724E-04
(PID.TID 0000.0001) %MON dynstat_wvel_del2            =   1.0056784651118E-05
(PID.TID 0000.0001) %MON dynstat_theta_max            =   1.7020391872709E+01
(PID.TID 0000.0001) %MON dynstat_theta_min            =   1.6979608188987E+01
(PID.TID 0000.0001) %MON dynstat_theta_mean           =   1.6999999916892E+01
(PID.TID 0000.0001) %MON dynstat_theta_sd             =   1.8682807688636E-02
(PID.TID 0000.0001) %MON dynstat_theta_del2           =   1.9647348484192E-04
(PID.TID 0000.0001) %MON dynstat_salt_max             =   1.7020387109310E+01
(PID.TID 0000.0001) %MON dynstat_salt_min             =   1.6979612982853E+01
(PID.TID 0000.0001) %MON dynstat_salt_mean            =   1.7000000005831E+01
(PID.TID 0000.0001) %MON dynstat_salt_sd              =   1.8685087833030E-02
(PID.TID 0000.0001) %MON dynstat_salt_del2            =   1.8941971357623E-04
(PID.TID 0000.0001) %MON advcfl_uvel_max              =   2.9543487450778E-02
(PID.TID 0000.0001) %MON advcfl_vvel_max              =   2.6380600718961E-02
(PID.TID 0000.0001) %MON advcfl_wvel_max              =   1.0217718434017E-01
(PID.TID 0000.0001) %MON advcfl_W_hf_max              =   1.0217718434017E-01
(PID.TID 0000.0001) %MON pe_b_mean                    =   3.4195168866809E-09
(PID.TID 0000.0001) %MON ke_max                       =   5.3462636753772E-04
(PID.TID 0000.0001) %MON ke_mean                      =   2.8595364562584E-05
(PID.TID 0000.0001) %MON ke_vol                       =   2.5000000000000E+11
(PID.TID 0000.0001) %MON vort_r_min                   =  -7.2067386855729E-06
(PID.TID 0000.0001) %MON vort_r_max                   =   7.5301395611164E-06
(PID.TID 0000.0001) %MON vort_a_mean                  =   7.2900000000000E-05
(PID.TID 0000.0001) %MON vort_a_sd                    =   2.0038311739643E-06
(PID.TID 0000.0001) %MON vort_p_mean                  =   7.7363265306122E-05
(PID.TID 0000.0001) %MON vort_p_sd                    =   3.0991233261599E-05
(PID.TID 0000.0001) %MON surfExpan_theta_mean         =   3.5267530081532E-13
(PID.TID 0000.0001) %MON surfExpan_salt_mean          =   7.6565068092760E-17
(PID.TID 0000.0001) // =======================================================
(PID.TID 0000.0001) // End MONITOR dynamic field statistics
(PID.TID 0000.0001) // =======================================================
 cg2d: Sum(rhs),rhsMax =  -2.31006132191819E-13  6.64479629896419E-04
(PID.TID 0000.0001)                    cg2d_init_res =    2.92833733261156E-01
(PID.TID 0000.0001)                       cg2d_iters =    76
(PID.TID 0000.0001)                         cg2d_res =    9.08004041504015E-12
(PID.TID 0000.0001) // =======================================================
(PID.TID 0000.0001) // Begin MONITOR dynamic field statistics
(PID.TID 0000.0001) // =======================================================
(PID.TID 0000.0001) %MON time_tsnumber                =                    22
(PID.TID 0000.0001) %MON time_secondsf                =   2.6400000000000E+04
(PID.TID 0000.0001) %MON dynstat_eta_max              =   4.0468387385158E-04
(PID.TID 0000.0001) %MON dynstat_eta_min              =  -4.1082133191306E-04
(PID.TID 0000.0001) %MON dynstat_eta_mean             =   2.8619613846592E-17
(PID.TID 0000.0001) %MON dynstat_eta_sd               =   3.7338313034940E-04
(PID.TID 0000.0001) %MON dynstat_eta_del2             =   3.8247408817083E-06
(PID.TID 0000.0001) %MON dynstat_uvel_max             =   2.6013071450913E-02
(PID.TID 0000.0001) %MON dynstat_uvel_min             =  -2.6017554521957E-02
(PID.TID 0000.0001) %MON dynstat_uvel_mean            =  -9.1458031535744E-07
(PID.TID 0000.0001) %MON dynstat_uvel_sd              =   6.1912431896697E-03
(PID.TID 0000.0001) %MON dynstat_uvel_del2            =   1.7307331978325E-04
(PID.TID 0000.0001) %MON dynstat_vvel_max             =   2.1558858424006E-02
(PID.TID 0000.0001) %MON dynstat_vvel_min             =  -2.1556449359154E-02
(PID.TID 0000.0001) %MON dynstat_vvel_mean            =   3.5450045020451E-10
(PID.TID 0000.0001) %MON dynstat_vvel_sd              =   4.8093319971280E-03
(PID.TID 0000.0001) %MON dynstat_vvel_del2            =   1.7943809402940E-04
(PID.TID 0000.0001) %MON dynstat_wvel_max             =   4.2271815766381E-04
(PID.TID 0000.0001) %MON dynstat_wvel_min             =  -4.2280597746848E-04
(PID.TID 0000.0001) %MON dynstat_wvel_mean            =  -2.5649006474965E-21
(PID.TID 0000.0001) %MON dynstat_wvel_sd              =   1.2214130625779E-04
(PID.TID 0000.0001) %MON dynstat_wvel_del2            =   1.0041455124747E-05
(PID.TID 0000.0001) %MON dynstat_theta_max            =   1.7020391872709E+01
(PID.TID 0000.0001) %MON dynstat_theta_min            =   1.6979608188987E+01
(PID.TID 0000.0001) %MON dynstat_theta_mean           =   1.6999999916889E+01
(PID.TID 0000.0001) %MON dynstat_theta_sd             =   1.8682629797510E-02
(PID.TID 0000.0001) %MON dynstat_theta_del2           =   1.9661182393909E-04
(PID.TID 0000.0001) %MON dynstat_salt_max             =   1.7020387109310E+01
(PID.TID 0000.0001) %MON dynstat_salt_min             =   1.6979612982853E+01
(PID.TID 0000.0001) %MON dynstat_salt_mean            =   1.7000000005831E+01
(PID.TID 0000.0001) %MON dynstat_salt_sd              =   1.8685057299567E-02
(PID.TID 0000.0001) %MON dynstat_salt_del2            =   1.8952558919904E-04
(PID.TID 0000.0001) %MON advcfl_uvel_max              =   3.1221065426348E-02
(PID.TID 0000.0001) %MON advcfl_vvel_max              =   2.5870630108808E-02
(PID.TID 0000.0001) %MON advcfl_wvel_max              =   1.0147343459243E-01
(PID.TID 0000.0001) %MON advcfl_W_hf_max              =   1.0147343459243E-01
(PID.TID 0000.0001) %MON pe_b_mean                    =   3.4191519437740E-09
(PID.TID 0000.0001) %MON ke_max                       =   5.6027867091738E-04
(PID.TID 0000.0001) %MON ke_mean                      =   3.0267990179171E-05
(PID.TID 0000.0001) %MON ke_vol                       =   2.5000000000000E+11
(PID.TID 0000.0001) %MON vort_r_min                   =  -7.5752031992497E-06
(PID.TID 0000.0001) %MON vort_r_max                   =   8.0191752222923E-06
(PID.TID 0000.0001) %MON vort_a_mean                  =   7.2900000000000E-05
(PID.TID 0000.0001) %MON vort_a_sd                    =   2.1189365647831E-06
(PID.TID 0000.0001) %MON vort_p_mean                  =   7.7363265306122E-05
(PID.TID 0000.0001) %MON vort_p_sd                    =   3.0999357077749E-05
(PID.TID 0000.0001) %MON surfExpan_theta_mean         =   4.4905894143922E-13
(PID.TID 0000.0001) %MON surfExpan_salt_mean          =   1.9020090707346E-16
(PID.TID 0000.0001) // =======================================================
(PID.TID 0000.0001) // End MONITOR dynamic field statistics
(PID.TID 0000.0001) // =======================================================
 cg2d: Sum(rhs),rhsMax =  -1.81728763981592E-13  6.72433233125578E-04
(PID.TID 0000.0001)                    cg2d_init_res =    2.98950765736240E-01
(PID.TID 0000.0001)                       cg2d_iters =    76
(PID.TID 0000.0001)                         cg2d_res =    9.06091179989595E-12
(PID.TID 0000.0001) // =======================================================
(PID.TID 0000.0001) // Begin MONITOR dynamic field statistics
(PID.TID 0000.0001) // =======================================================
(PID.TID 0000.0001) %MON time_tsnumber                =                    23
(PID.TID 0000.0001) %MON time_secondsf                =   2.7600000000000E+04
(PID.TID 0000.0001) %MON dynstat_eta_max              =   4.0410299002112E-04
(PID.TID 0000.0001) %MON dynstat_eta_min              =  -4.1140223924718E-04
(PID.TID 0000.0001) %MON dynstat_eta_mean             =   2.8850391092794E-17
(PID.TID 0000.0001) %MON dynstat_eta_sd               =   3.7336626590313E-04
(PID.TID 0000.0001) %MON dynstat_eta_del2             =   3.8338732878612E-06
(PID.TID 0000.0001) %MON dynstat_uvel_max             =   2.7344641633129E-02
(PID.TID 0000.0001) %MON dynstat_uvel_min             =  -2.7348924848612E-02
(PID.TID 0000.0001) %MON dynstat_uvel_mean            =  -9.1459626981930E-07
(PID.TID 0000.0001) %MON dynstat_uvel_sd              =   6.5423574161299E-03
(PID.TID 0000.0001) %MON dynstat_uvel_del2            =   1.8265377773793E-04
(PID.TID 0000.0001) %MON dynstat_vvel_max             =   2.1017144776044E-02
(PID.TID 0000.0001) %MON dynstat_vvel_min             =  -2.1014782920899E-02
(PID.TID 0000.0001) %MON dynstat_vvel_mean            =   3.6849199336711E-10
(PID.TID 0000.0001) %MON dynstat_vvel_sd              =   4.6675644492607E-03
(PID.TID 0000.0001) %MON dynstat_vvel_del2            =   1.7763106264531E-04
(PID.TID 0000.0001) %MON dynstat_wvel_max             =   4.1762571833532E-04
(PID.TID 0000.0001) %MON dynstat_wvel_min             =  -4.1771774170150E-04
(PID.TID 0000.0001) %MON dynstat_wvel_mean            =   2.3797012525971E-21
(PID.TID 0000.0001) %MON dynstat_wvel_sd              =   1.1960629285445E-04
(PID.TID 0000.0001) %MON dynstat_wvel_del2            =   9.9912318738946E-06
(PID.TID 0000.0001) %MON dynstat_theta_max            =   1.7020391872709E+01
(PID.TID 0000.0001) %MON dynstat_theta_min            =   1.6979608188987E+01
(PID.TID 0000.0001) %MON dynstat_theta_mean           =   1.6999999916887E+01
(PID.TID 0000.0001) %MON dynstat_theta_sd             =   1.8682454235595E-02
(PID.TID 0000.0001) %MON dynstat_theta_del2           =   1.9671063022997E-04
(PID.TID 0000.0001) %MON dynstat_salt_max             =   1.7020387109310E+01
(PID.TID 0000.0001) %MON dynstat_salt_min             =   1.6979612982853E+01
(PID.TID 0000.0001) %MON dynstat_salt_mean            =   1.7000000005831E+01
(PID.TID 0000.0001) %MON dynstat_salt_sd              =   1.8685024993604E-02
(PID.TID 0000.0001) %MON dynstat_salt_del2            =   1.8963295703307E-04
(PID.TID 0000.0001) %MON advcfl_uvel_max              =   3.2818709818334E-02
(PID.TID 0000.0001) %MON advcfl_vvel_max              =   2.5220573731253E-02
(PID.TID 0000.0001) %MON advcfl_wvel_max              =   1.0025225800836E-01
(PID.TID 0000.0001) %MON advcfl_W_hf_max              =   1.0025225800836E-01
(PID.TID 0000.0001) %MON pe_b_mean                    =   3.4188430878168E-09
(PID.TID 0000.0001) %MON ke_max                       =   5.8389044580926E-04
(PID.TID 0000.0001) %MON ke_mean                      =   3.1858576484680E-05
(PID.TID 0000.0001) %MON ke_vol                       =   2.5000000000000E+11
(PID.TID 0000.0001) %MON vort_r_min                   =  -7.9223621797129E-06
(PID.TID 0000.0001) %MON vort_r_max                   =   8.4889130034358E-06
(PID.TID 0000.0001) %MON vort_a_mean                  =   7.2899999999999E-05
(PID.TID 0000.0001) %MON vort_a_sd                    =   2.2287236802364E-06
(PID.TID 0000.0001) %MON vort_p_mean                  =   7.7363265306122E-05
(PID.TID 0000.0001) %MON vort_p_sd                    =   3.1007526060023E-05
(PID.TID 0000.0001) %MON surfExpan_theta_mean         =   5.4332377101148E-13
(PID.TID 0000.0001) %MON surfExpan_salt_mean          =   1.4187334977786E-16
(PID.TID 0000.0001) // =======================================================
(PID.TID 0000.0001) // End MONITOR dynamic field statistics
(PID.TID 0000.0001) // =======================================================
 cg2d: Sum(rhs),rhsMax =  -1.51076633841951E-13  6.80579371522796E-04
(PID.TID 0000.0001)                    cg2d_init_res =    3.01745293170428E-01
(PID.TID 0000.0001)                       cg2d_iters =    76
(PID.TID 0000.0001)                         cg2d_res =    8.75900937621188E-12
(PID.TID 0000.0001) // =======================================================
(PID.TID 0000.0001) // Begin MONITOR dynamic field statistics
(PID.TID 0000.0001) // =======================================================
(PID.TID 0000.0001) %MON time_tsnumber                =                    24
(PID.TID 0000.0001) %MON time_secondsf                =   2.8800000000000E+04
(PID.TID 0000.0001) %MON dynstat_eta_max              =   4.0349726000040E-04
(PID.TID 0000.0001) %MON dynstat_eta_min              =  -4.1200799128023E-04
(PID.TID 0000.0001) %MON dynstat_eta_mean             =   3.4440728627905E-17
(PID.TID 0000.0001) %MON dynstat_eta_sd               =   3.7335303799756E-04
(PID.TID 0000.0001) %MON dynstat_eta_del2             =   3.8427166234999E-06
(PID.TID 0000.0001) %MON dynstat_uvel_max             =   2.8601801472516E-02
(PID.TID 0000.0001) %MON dynstat_uvel_min             =  -2.8605891156269E-02
(PID.TID 0000.0001) %MON dynstat_uvel_mean            =  -9.1461639473903E-07
(PID.TID 0000.0001) %MON dynstat_uvel_sd              =   6.8772945242105E-03
(PID.TID 0000.0001) %MON dynstat_uvel_del2            =   1.9176840179016E-04
(PID.TID 0000.0001) %MON dynstat_vvel_max             =   2.0366378253658E-02
(PID.TID 0000.0001) %MON dynstat_vvel_min             =  -2.0364061649114E-02
(PID.TID 0000.0001) %MON dynstat_vvel_mean            =   3.7858916814499E-10
(PID.TID 0000.0001) %MON dynstat_vvel_sd              =   4.4969820164247E-03
(PID.TID 0000.0001) %MON dynstat_vvel_del2            =   1.7497033374557E-04
(PID.TID 0000.0001) %MON dynstat_wvel_max             =   4.1048790815516E-04
(PID.TID 0000.0001) %MON dynstat_wvel_min             =  -4.1058305757985E-04
(PID.TID 0000.0001) %MON dynstat_wvel_mean            =   1.3108352461990E-21
(PID.TID 0000.0001) %MON dynstat_wvel_sd              =   1.1653758800638E-04
(PID.TID 0000.0001) %MON dynstat_wvel_del2            =   9.9092727610623E-06
(PID.TID 0000.0001) %MON dynstat_theta_max            =   1.7020391872709E+01
(PID.TID 0000.0001) %MON dynstat_theta_min            =   1.6979608188987E+01
(PID.TID 0000.0001) %MON dynstat_theta_mean           =   1.6999999916883E+01
(PID.TID 0000.0001) %MON dynstat_theta_sd             =   1.8682282045111E-02
(PID.TID 0000.0001) %MON dynstat_theta_del2           =   1.9677279472023E-04
(PID.TID 0000.0001) %MON dynstat_salt_max             =   1.7020387109310E+01
(PID.TID 0000.0001) %MON dynstat_salt_min             =   1.6979612982852E+01
(PID.TID 0000.0001) %MON dynstat_salt_mean            =   1.7000000005831E+01
(PID.TID 0000.0001) %MON dynstat_salt_sd              =   1.8684990997392E-02
(PID.TID 0000.0001) %MON dynstat_salt_del2            =   1.8974088355191E-04
(PID.TID 0000.0001) %MON advcfl_uvel_max              =   3.4327069387523E-02
(PID.TID 0000.0001) %MON advcfl_vvel_max              =   2.4439653904390E-02
(PID.TID 0000.0001) %MON advcfl_wvel_max              =   9.8539933819164E-02
(PID.TID 0000.0001) %MON advcfl_W_hf_max              =   9.8539933819164E-02
(PID.TID 0000.0001) %MON pe_b_mean                    =   3.4186008413337E-09
(PID.TID 0000.0001) %MON ke_max                       =   6.0532702187459E-04
(PID.TID 0000.0001) %MON ke_mean                      =   3.3355557087532E-05
(PID.TID 0000.0001) %MON ke_vol                       =   2.5000000000000E+11
(PID.TID 0000.0001) %MON vort_r_min                   =  -8.2467123378644E-06
(PID.TID 0000.0001) %MON vort_r_max                   =   8.9352899144623E-06
(PID.TID 0000.0001) %MON vort_a_mean                  =   7.2900000000000E-05
(PID.TID 0000.0001) %MON vort_a_sd                    =   2.3325321786575E-06
(PID.TID 0000.0001) %MON vort_p_mean                  =   7.7363265306122E-05
(PID.TID 0000.0001) %MON vort_p_sd                    =   3.1015627531779E-05
(PID.TID 0000.0001) %MON surfExpan_theta_mean         =   6.3116000684392E-13
(PID.TID 0000.0001) %MON surfExpan_salt_mean          =   1.2913473042988E-16
(PID.TID 0000.0001) // =======================================================
(PID.TID 0000.0001) // End MONITOR dynamic field statistics
(PID.TID 0000.0001) // =======================================================
 cg2d: Sum(rhs),rhsMax =  -1.71138060320319E-13  6.88772750661504E-04
(PID.TID 0000.0001)                    cg2d_init_res =    3.00587705692923E-01
(PID.TID 0000.0001)                       cg2d_iters =    76
(PID.TID 0000.0001)                         cg2d_res =    9.09823202684219E-12
(PID.TID 0000.0001) // =======================================================
(PID.TID 0000.0001) // Begin MONITOR dynamic field statistics
(PID.TID 0000.0001) // =======================================================
(PID.TID 0000.0001) %MON time_tsnumber                =                    25
(PID.TID 0000.0001) %MON time_secondsf                =   3.0000000000000E+04
(PID.TID 0000.0001) %MON dynstat_eta_max              =   4.0287511825213E-04
(PID.TID 0000.0001) %MON dynstat_eta_min              =  -4.1263015431528E-04
(PID.TID 0000.0001) %MON dynstat_eta_mean             =   3.3745151004627E-17
(PID.TID 0000.0001) %MON dynstat_eta_sd               =   3.7334383960810E-04
(PID.TID 0000.0001) %MON dynstat_eta_del2             =   3.8511264472983E-06
(PID.TID 0000.0001) %MON dynstat_uvel_max             =   2.9777550743634E-02
(PID.TID 0000.0001) %MON dynstat_uvel_min             =  -2.9781453850422E-02
(PID.TID 0000.0001) %MON dynstat_uvel_mean            =  -9.1464036768329E-07
(PID.TID 0000.0001) %MON dynstat_uvel_sd              =   7.1937415818368E-03
(PID.TID 0000.0001) %MON dynstat_uvel_del2            =   2.0035080507509E-04
(PID.TID 0000.0001) %MON dynstat_vvel_max             =   1.9614788080746E-02
(PID.TID 0000.0001) %MON dynstat_vvel_min             =  -1.9612513920891E-02
(PID.TID 0000.0001) %MON dynstat_vvel_mean            =   3.8448810224449E-10
(PID.TID 0000.0001) %MON dynstat_vvel_sd              =   4.2995579988048E-03
(PID.TID 0000.0001) %MON dynstat_vvel_del2            =   1.7152200724088E-04
(PID.TID 0000.0001) %MON dynstat_wvel_max             =   4.0143553242542E-04
(PID.TID 0000.0001) %MON dynstat_wvel_min             =  -4.0153288619280E-04
(PID.TID 0000.0001) %MON dynstat_wvel_mean            =   1.6128294929141E-21
(PID.TID 0000.0001) %MON dynstat_wvel_sd              =   1.1298718846536E-04
(PID.TID 0000.0001) %MON dynstat_wvel_del2            =   9.7992117684617E-06
(PID.TID 0000.0001) %MON dynstat_theta_max            =   1.7020391872709E+01
(PID.TID 0000.0001) %MON dynstat_theta_min            =   1.6979608188987E+01
(PID.TID 0000.0001) %MON dynstat_theta_mean           =   1.6999999916879E+01
(PID.TID 0000.0001) %MON dynstat_theta_sd             =   1.8682114226419E-02
(PID.TID 0000.0001) %MON dynstat_theta_del2           =   1.9680178284000E-04
(PID.TID 0000.0001) %MON dynstat_salt_max             =   1.7020387109310E+01
(PID.TID 0000.0001) %MON dynstat_salt_min             =   1.6979612982852E+01
(PID.TID 0000.0001) %MON dynstat_salt_mean            =   1.7000000005831E+01
(PID.TID 0000.0001) %MON dynstat_salt_sd              =   1.8684955404464E-02
(PID.TID 0000.0001) %MON dynstat_salt_del2            =   1.8984832225513E-04
(PID.TID 0000.0001) %MON advcfl_uvel_max              =   3.5737744620506E-02
(PID.TID 0000.0001) %MON advcfl_vvel_max              =   2.3537745696896E-02
(PID.TID 0000.0001) %MON advcfl_wvel_max              =   9.6367892686272E-02
(PID.TID 0000.0001) %MON advcfl_W_hf_max              =   9.6367892686272E-02
(PID.TID 0000.0001) %MON pe_b_mean                    =   3.4184323936106E-09
(PID.TID 0000.0001) %MON ke_max                       =   6.2447908308416E-04
(PID.TID 0000.0001) %MON ke_mean                      =   3.4748334904249E-05
(PID.TID 0000.0001) %MON ke_vol                       =   2.5000000000000E+11
(PID.TID 0000.0001) %MON vort_r_min                   =  -8.5470197828807E-06
(PID.TID 0000.0001) %MON vort_r_max                   =   9.3546768082781E-06
(PID.TID 0000.0001) %MON vort_a_mean                  =   7.2900000000001E-05
(PID.TID 0000.0001) %MON vort_a_sd                    =   2.4297702004040E-06
(PID.TID 0000.0001) %MON vort_p_mean                  =   7.7363265306123E-05
(PID.TID 0000.0001) %MON vort_p_sd                    =   3.1023548659609E-05
(PID.TID 0000.0001) %MON surfExpan_theta_mean         =   7.0903335064069E-13
(PID.TID 0000.0001) %MON surfExpan_salt_mean          =   1.1783252823789E-16
(PID.TID 0000.0001) // =======================================================
(PID.TID 0000.0001) // End MONITOR dynamic field statistics
(PID.TID 0000.0001) // =======================================================
 cg2d: Sum(rhs),rhsMax =  -2.58479489981950E-13  6.96875100697790E-04
(PID.TID 0000.0001)                    cg2d_init_res =    2.95669520389809E-01
(PID.TID 0000.0001)                       cg2d_iters =    77
(PID.TID 0000.0001)                         cg2d_res =    8.46815808970178E-12
(PID.TID 0000.0001) // =======================================================
(PID.TID 0000.0001) // Begin MONITOR dynamic field statistics
(PID.TID 0000.0001) // =======================================================
(PID.TID 0000.0001) %MON time_tsnumber                =                    26
(PID.TID 0000.0001) %MON time_secondsf                =   3.1200000000000E+04
(PID.TID 0000.0001) %MON dynstat_eta_max              =   4.0224555990070E-04
(PID.TID 0000.0001) %MON dynstat_eta_min              =  -4.1325973322538E-04
(PID.TID 0000.0001) %MON dynstat_eta_mean             =   4.9502065795903E-17
(PID.TID 0000.0001) %MON dynstat_eta_sd               =   3.7333884808434E-04
(PID.TID 0000.0001) %MON dynstat_eta_del2             =   3.8589847964258E-06
(PID.TID 0000.0001) %MON dynstat_uvel_max             =   3.0865686308011E-02
(PID.TID 0000.0001) %MON dynstat_uvel_min             =  -3.0869410714373E-02
(PID.TID 0000.0001) %MON dynstat_uvel_mean            =  -9.1466775893238E-07
(PID.TID 0000.0001) %MON dynstat_uvel_sd              =   7.4895587448499E-03
(PID.TID 0000.0001) %MON dynstat_uvel_del2            =   2.0834164644204E-04
(PID.TID 0000.0001) %MON dynstat_vvel_max             =   1.8771061950102E-02
(PID.TID 0000.0001) %MON dynstat_vvel_min             =  -1.8768826918616E-02
(PID.TID 0000.0001) %MON dynstat_vvel_mean            =   3.8595935569208E-10
(PID.TID 0000.0001) %MON dynstat_vvel_sd              =   4.0775292468331E-03
(PID.TID 0000.0001) %MON dynstat_vvel_del2            =   1.6739015100910E-04
(PID.TID 0000.0001) %MON dynstat_wvel_max             =   3.9061752321578E-04
(PID.TID 0000.0001) %MON dynstat_wvel_min             =  -3.9071632454382E-04
(PID.TID 0000.0001) %MON dynstat_wvel_mean            =   3.6441169865033E-22
(PID.TID 0000.0001) %MON dynstat_wvel_sd              =   1.0901115358683E-04
(PID.TID 0000.0001) %MON dynstat_wvel_del2            =   9.6653702376009E-06
(PID.TID 0000.0001) %MON dynstat_theta_max            =   1.7020391872709E+01
(PID.TID 0000.0001) %MON dynstat_theta_min            =   1.6979608188987E+01
(PID.TID 0000.0001) %MON dynstat_theta_mean           =   1.6999999916875E+01
(PID.TID 0000.0001) %MON dynstat_theta_sd             =   1.8681951728199E-02
(PID.TID 0000.0001) %MON dynstat_theta_del2           =   1.9680149515954E-04
(PID.TID 0000.0001) %MON dynstat_salt_max             =   1.7020387109310E+01
(PID.TID 0000.0001) %MON dynstat_salt_min             =   1.6979612982852E+01
(PID.TID 0000.0001) %MON dynstat_salt_mean            =   1.7000000005831E+01
(PID.TID 0000.0001) %MON dynstat_salt_sd              =   1.8684918325564E-02
(PID.TID 0000.0001) %MON dynstat_salt_del2            =   1.8995427136560E-04
(PID.TID 0000.0001) %MON advcfl_uvel_max              =   3.7043292857248E-02
(PID.TID 0000.0001) %MON advcfl_vvel_max              =   2.2525274340122E-02
(PID.TID 0000.0001) %MON advcfl_wvel_max              =   9.3771917890517E-02
(PID.TID 0000.0001) %MON advcfl_W_hf_max              =   9.3771917890517E-02
(PID.TID 0000.0001) %MON pe_b_mean                    =   3.4183409868663E-09
(PID.TID 0000.0001) %MON ke_max                       =   6.4126129988140E-04
(PID.TID 0000.0001) %MON ke_mean                      =   3.6027342998802E-05
(PID.TID 0000.0001) %MON ke_vol                       =   2.5000000000000E+11
(PID.TID 0000.0001) %MON vort_r_min                   =  -8.8223134222202E-06
(PID.TID 0000.0001) %MON vort_r_max                   =   9.7439480868115E-06
(PID.TID 0000.0001) %MON vort_a_mean                  =   7.2900000000000E-05
(PID.TID 0000.0001) %MON vort_a_sd                    =   2.5199172515776E-06
(PID.TID 0000.0001) %MON vort_p_mean                  =   7.7363265306123E-05
(PID.TID 0000.0001) %MON vort_p_sd                    =   3.1031179175558E-05
(PID.TID 0000.0001) %MON surfExpan_theta_mean         =   7.7354858702634E-13
(PID.TID 0000.0001) %MON surfExpan_salt_mean          =   1.0069163204106E-16
(PID.TID 0000.0001) // =======================================================
(PID.TID 0000.0001) // End MONITOR dynamic field statistics
(PID.TID 0000.0001) // =======================================================
 cg2d: Sum(rhs),rhsMax =  -2.91245705937720E-13  7.04762253216223E-04
(PID.TID 0000.0001)                    cg2d_init_res =    2.87276218112308E-01
(PID.TID 0000.0001)                       cg2d_iters =    77
(PID.TID 0000.0001)                         cg2d_res =    9.65127936990069E-12
(PID.TID 0000.0001) // =======================================================
(PID.TID 0000.0001) // Begin MONITOR dynamic field statistics
(PID.TID 0000.0001) // =======================================================
(PID.TID 0000.0001) %MON time_tsnumber                =                    27
(PID.TID 0000.0001) %MON time_secondsf                =   3.2400000000000E+04
(PID.TID 0000.0001) %MON dynstat_eta_max              =   4.0161794111901E-04
(PID.TID 0000.0001) %MON dynstat_eta_min              =  -4.1388737187561E-04
(PID.TID 0000.0001) %MON dynstat_eta_mean             =   3.2764815665054E-17
(PID.TID 0000.0001) %MON dynstat_eta_sd               =   3.7333800993926E-04
(PID.TID 0000.0001) %MON dynstat_eta_del2             =   3.8661989005251E-06
(PID.TID 0000.0001) %MON dynstat_uvel_max             =   3.1860806524100E-02
(PID.TID 0000.0001) %MON dynstat_uvel_min             =  -3.1864360107062E-02
(PID.TID 0000.0001) %MON dynstat_uvel_mean            =  -9.1469797649672E-07
(PID.TID 0000.0001) %MON dynstat_uvel_sd              =   7.7627927145160E-03
(PID.TID 0000.0001) %MON dynstat_uvel_del2            =   2.1568962679228E-04
(PID.TID 0000.0001) %MON dynstat_vvel_max             =   1.7844265629288E-02
(PID.TID 0000.0001) %MON dynstat_vvel_min             =  -1.7842065963404E-02
(PID.TID 0000.0001) %MON dynstat_vvel_mean            =   3.8287178554884E-10
(PID.TID 0000.0001) %MON dynstat_vvel_sd              =   3.8334101113731E-03
(PID.TID 0000.0001) %MON dynstat_vvel_del2            =   1.6265951964853E-04
(PID.TID 0000.0001) %MON dynstat_wvel_max             =   3.7819833119584E-04
(PID.TID 0000.0001) %MON dynstat_wvel_min             =  -3.7829798686108E-04
(PID.TID 0000.0001) %MON dynstat_wvel_mean            =   3.5216226415257E-22
(PID.TID 0000.0001) %MON dynstat_wvel_sd              =   1.0466954668078E-04
(PID.TID 0000.0001) %MON dynstat_wvel_del2            =   9.5120324756950E-06
(PID.TID 0000.0001) %MON dynstat_theta_max            =   1.7020391872709E+01
(PID.TID 0000.0001) %MON dynstat_theta_min            =   1.6979608188987E+01
(PID.TID 0000.0001) %MON dynstat_theta_mean           =   1.6999999916870E+01
(PID.TID 0000.0001) %MON dynstat_theta_sd             =   1.8681795441582E-02
(PID.TID 0000.0001) %MON dynstat_theta_del2           =   1.9677612965531E-04
(PID.TID 0000.0001) %MON dynstat_salt_max             =   1.7020387109310E+01
(PID.TID 0000.0001) %MON dynstat_salt_min             =   1.6979612982852E+01
(PID.TID 0000.0001) %MON dynstat_salt_mean            =   1.7000000005831E+01
(PID.TID 0000.0001) %MON dynstat_salt_sd              =   1.8684879877032E-02
(PID.TID 0000.0001) %MON dynstat_salt_del2            =   1.9005809652154E-04
(PID.TID 0000.0001) %MON advcfl_uvel_max              =   3.8237232128474E-02
(PID.TID 0000.0001) %MON advcfl_vvel_max              =   2.1413118755146E-02
(PID.TID 0000.0001) %MON advcfl_wvel_max              =   9.0791516846659E-02
(PID.TID 0000.0001) %MON advcfl_W_hf_max              =   9.0791516846659E-02
(PID.TID 0000.0001) %MON pe_b_mean                    =   3.4183256385440E-09
(PID.TID 0000.0001) %MON ke_max                       =   6.5561091737940E-04
(PID.TID 0000.0001) %MON ke_mean                      =   3.7184091661957E-05
(PID.TID 0000.0001) %MON ke_vol                       =   2.5000000000000E+11
(PID.TID 0000.0001) %MON vort_r_min                   =  -9.0718708392445E-06
(PID.TID 0000.0001) %MON vort_r_max                   =   1.0100529773640E-05
(PID.TID 0000.0001) %MON vort_a_mean                  =   7.2900000000000E-05
(PID.TID 0000.0001) %MON vort_a_sd                    =   2.6025261465995E-06
(PID.TID 0000.0001) %MON vort_p_mean                  =   7.7363265306123E-05
(PID.TID 0000.0001) %MON vort_p_sd                    =   3.1038413934241E-05
(PID.TID 0000.0001) %MON surfExpan_theta_mean         =   8.2181237028607E-13
(PID.TID 0000.0001) %MON surfExpan_salt_mean          =   8.0664165232388E-17
(PID.TID 0000.0001) // =======================================================
(PID.TID 0000.0001) // End MONITOR dynamic field statistics
(PID.TID 0000.0001) // =======================================================
 cg2d: Sum(rhs),rhsMax =  -1.92582820350562E-13  7.12367074919098E-04
(PID.TID 0000.0001)                    cg2d_init_res =    2.75749667201013E-01
(PID.TID 0000.0001)                       cg2d_iters =    78
(PID.TID 0000.0001)                         cg2d_res =    7.68181376330056E-12
(PID.TID 0000.0001) // =======================================================
(PID.TID 0000.0001) // Begin MONITOR dynamic field statistics
(PID.TID 0000.0001) // =======================================================
(PID.TID 0000.0001) %MON time_tsnumber                =                    28
(PID.TID 0000.0001) %MON time_secondsf                =   3.3600000000000E+04
(PID.TID 0000.0001) %MON dynstat_eta_max              =   4.0100174418360E-04
(PID.TID 0000.0001) %MON dynstat_eta_min              =  -4.1450358813756E-04
(PID.TID 0000.0001) %MON dynstat_eta_mean             =   3.9879381904528E-17
(PID.TID 0000.0001) %MON dynstat_eta_sd               =   3.7334104295878E-04
(PID.TID 0000.0001) %MON dynstat_eta_del2             =   3.8727007158429E-06
(PID.TID 0000.0001) %MON dynstat_uvel_max             =   3.2758311276485E-02
(PID.TID 0000.0001) %MON dynstat_uvel_min             =  -3.2761701655174E-02
(PID.TID 0000.0001) %MON dynstat_uvel_mean            =  -9.1473030397521E-07
(PID.TID 0000.0001) %MON dynstat_uvel_sd              =   8.0116884362203E-03
(PID.TID 0000.0001) %MON dynstat_uvel_del2            =   2.2235219837920E-04
(PID.TID 0000.0001) %MON dynstat_vvel_max             =   1.6843766133367E-02
(PID.TID 0000.0001) %MON dynstat_vvel_min             =  -1.6841597994429E-02
(PID.TID 0000.0001) %MON dynstat_vvel_mean            =   3.7518943115825E-10
(PID.TID 0000.0001) %MON dynstat_vvel_sd              =   3.5700219001232E-03
(PID.TID 0000.0001) %MON dynstat_vvel_del2            =   1.5746230844542E-04
(PID.TID 0000.0001) %MON dynstat_wvel_max             =   3.6435471007059E-04
(PID.TID 0000.0001) %MON dynstat_wvel_min             =  -3.6445476597618E-04
(PID.TID 0000.0001) %MON dynstat_wvel_mean            =   1.3050586426194E-21
(PID.TID 0000.0001) %MON dynstat_wvel_sd              =   1.0002643819413E-04
(PID.TID 0000.0001) %MON dynstat_wvel_del2            =   9.3428510316893E-06
(PID.TID 0000.0001) %MON dynstat_theta_max            =   1.7020391872708E+01
(PID.TID 0000.0001) %MON dynstat_theta_min            =   1.6979608188987E+01
(PID.TID 0000.0001) %MON dynstat_theta_mean           =   1.6999999916865E+01
(PID.TID 0000.0001) %MON dynstat_theta_sd             =   1.8681646186985E-02
(PID.TID 0000.0001) %MON dynstat_theta_del2           =   1.9673005630382E-04
(PID.TID 0000.0001) %MON dynstat_salt_max             =   1.7020387109310E+01
(PID.TID 0000.0001) %MON dynstat_salt_min             =   1.6979612982852E+01
(PID.TID 0000.0001) %MON dynstat_salt_mean            =   1.7000000005831E+01
(PID.TID 0000.0001) %MON dynstat_salt_sd              =   1.8684840195477E-02
(PID.TID 0000.0001) %MON dynstat_salt_del2            =   1.9015889193438E-04
(PID.TID 0000.0001) %MON advcfl_uvel_max              =   3.9314041986208E-02
(PID.TID 0000.0001) %MON advcfl_vvel_max              =   2.0212519360040E-02
(PID.TID 0000.0001) %MON advcfl_wvel_max              =   8.7469143834284E-02
(PID.TID 0000.0001) %MON advcfl_W_hf_max              =   8.7469143834284E-02
(PID.TID 0000.0001) %MON pe_b_mean                    =   3.4183811801189E-09
(PID.TID 0000.0001) %MON ke_max                       =   6.6748631769973E-04
(PID.TID 0000.0001) %MON ke_mean                      =   3.8211203274231E-05
(PID.TID 0000.0001) %MON ke_vol                       =   2.5000000000000E+11
(PID.TID 0000.0001) %MON vort_r_min                   =  -9.2952046568313E-06
(PID.TID 0000.0001) %MON vort_r_max                   =   1.0422421842359E-05
(PID.TID 0000.0001) %MON vort_a_mean                  =   7.2900000000000E-05
(PID.TID 0000.0001) %MON vort_a_sd                    =   2.6772241692503E-06
(PID.TID 0000.0001) %MON vort_p_mean                  =   7.7363265306122E-05
(PID.TID 0000.0001) %MON vort_p_sd                    =   3.1045155243208E-05
(PID.TID 0000.0001) %MON surfExpan_theta_mean         =   8.5158551277911E-13
(PID.TID 0000.0001) %MON surfExpan_salt_mean          =   5.7833828001412E-17
(PID.TID 0000.0001) // =======================================================
(PID.TID 0000.0001) // End MONITOR dynamic field statistics
(PID.TID 0000.0001) // =======================================================
 cg2d: Sum(rhs),rhsMax =  -2.86232571932582E-13  7.19571560338386E-04
(PID.TID 0000.0001)                    cg2d_init_res =    2.61509256966070E-01
(PID.TID 0000.0001)                       cg2d_iters =    78
(PID.TID 0000.0001)                         cg2d_res =    7.92499075900565E-12
(PID.TID 0000.0001) // =======================================================
(PID.TID 0000.0001) // Begin MONITOR dynamic field statistics
(PID.TID 0000.0001) // =======================================================
(PID.TID 0000.0001) %MON time_tsnumber                =                    29
(PID.TID 0000.0001) %MON time_secondsf                =   3.4800000000000E+04
(PID.TID 0000.0001) %MON dynstat_eta_max              =   4.0040634109254E-04
(PID.TID 0000.0001) %MON dynstat_eta_min              =  -4.1509901022262E-04
(PID.TID 0000.0001) %MON dynstat_eta_mean             =   3.9678857876591E-17
(PID.TID 0000.0001) %MON dynstat_eta_sd               =   3.7334745473590E-04
(PID.TID 0000.0001) %MON dynstat_eta_del2             =   3.8784455324135E-06
(PID.TID 0000.0001) %MON dynstat_uvel_max             =   3.3554398824316E-02
(PID.TID 0000.0001) %MON dynstat_uvel_min             =  -3.3557633726533E-02
(PID.TID 0000.0001) %MON dynstat_uvel_mean            =  -9.1476393572856E-07
(PID.TID 0000.0001) %MON dynstat_uvel_sd              =   8.2346990168866E-03
(PID.TID 0000.0001) %MON dynstat_uvel_del2            =   2.2829559675246E-04
(PID.TID 0000.0001) %MON dynstat_vvel_max             =   1.5779158508573E-02
(PID.TID 0000.0001) %MON dynstat_vvel_min             =  -1.5777017607112E-02
(PID.TID 0000.0001) %MON dynstat_vvel_mean            =   3.6297291562785E-10
(PID.TID 0000.0001) %MON dynstat_vvel_sd              =   3.2905487044384E-03
(PID.TID 0000.0001) %MON dynstat_vvel_del2            =   1.5206613439832E-04
(PID.TID 0000.0001) %MON dynstat_wvel_max             =   3.4927211939521E-04
(PID.TID 0000.0001) %MON dynstat_wvel_min             =  -3.4937234213049E-04
(PID.TID 0000.0001) %MON dynstat_wvel_mean            =   9.9562150623221E-22
(PID.TID 0000.0001) %MON dynstat_wvel_sd              =   9.5149993494616E-05
(PID.TID 0000.0001) %MON dynstat_wvel_del2            =   9.1618802896025E-06
(PID.TID 0000.0001) %MON dynstat_theta_max            =   1.7020391872708E+01
(PID.TID 0000.0001) %MON dynstat_theta_min            =   1.6979608188987E+01
(PID.TID 0000.0001) %MON dynstat_theta_mean           =   1.6999999916861E+01
(PID.TID 0000.0001) %MON dynstat_theta_sd             =   1.8681504676553E-02
(PID.TID 0000.0001) %MON dynstat_theta_del2           =   1.9666762972055E-04
(PID.TID 0000.0001) %MON dynstat_salt_max             =   1.7020387109310E+01
(PID.TID 0000.0001) %MON dynstat_salt_min             =   1.6979612982852E+01
(PID.TID 0000.0001) %MON dynstat_salt_mean            =   1.7000000005831E+01
(PID.TID 0000.0001) %MON dynstat_salt_sd              =   1.8684799423666E-02
(PID.TID 0000.0001) %MON dynstat_salt_del2            =   1.9025584450074E-04
(PID.TID 0000.0001) %MON advcfl_uvel_max              =   4.0269160471839E-02
(PID.TID 0000.0001) %MON advcfl_vvel_max              =   1.8934990210288E-02
(PID.TID 0000.0001) %MON advcfl_wvel_max              =   8.3849362111318E-02
(PID.TID 0000.0001) %MON advcfl_W_hf_max              =   8.3849362111318E-02
(PID.TID 0000.0001) %MON pe_b_mean                    =   3.4184985960145E-09
(PID.TID 0000.0001) %MON ke_max                       =   6.7686556046654E-04
(PID.TID 0000.0001) %MON ke_mean                      =   3.9102435540368E-05
(PID.TID 0000.0001) %MON ke_vol                       =   2.5000000000000E+11
(PID.TID 0000.0001) %MON vort_r_min                   =  -9.4920488112931E-06
(PID.TID 0000.0001) %MON vort_r_max                   =   1.0708197096742E-05
(PID.TID 0000.0001) %MON vort_a_mean                  =   7.2899999999999E-05
(PID.TID 0000.0001) %MON vort_a_sd                    =   2.7437134268199E-06
(PID.TID 0000.0001) %MON vort_p_mean                  =   7.7363265306122E-05
(PID.TID 0000.0001) %MON vort_p_sd                    =   3.1051314904025E-05
(PID.TID 0000.0001) %MON surfExpan_theta_mean         =   8.6137991900269E-13
(PID.TID 0000.0001) %MON surfExpan_salt_mean          =   3.2915008837758E-17
(PID.TID 0000.0001) // =======================================================
(PID.TID 0000.0001) // End MONITOR dynamic field statistics
(PID.TID 0000.0001) // =======================================================
 cg2d: Sum(rhs),rhsMax =  -2.78628086314986E-13  7.26313807486692E-04
(PID.TID 0000.0001)                    cg2d_init_res =    2.44990263671886E-01
(PID.TID 0000.0001)                       cg2d_iters =    78
(PID.TID 0000.0001)                         cg2d_res =    8.00109567085478E-12
(PID.TID 0000.0001) // =======================================================
(PID.TID 0000.0001) // Begin MONITOR dynamic field statistics
(PID.TID 0000.0001) // =======================================================
(PID.TID 0000.0001) %MON time_tsnumber                =                    30
(PID.TID 0000.0001) %MON time_secondsf                =   3.6000000000000E+04
(PID.TID 0000.0001) %MON dynstat_eta_max              =   3.9984075983898E-04
(PID.TID 0000.0001) %MON dynstat_eta_min              =  -4.1566461039402E-04
(PID.TID 0000.0001) %MON dynstat_eta_mean             =   2.8544881334747E-17
(PID.TID 0000.0001) %MON dynstat_eta_sd               =   3.7335657577151E-04
(PID.TID 0000.0001) %MON dynstat_eta_del2             =   3.8834096779546E-06
(PID.TID 0000.0001) %MON dynstat_uvel_max             =   3.4246059611300E-02
(PID.TID 0000.0001) %MON dynstat_uvel_min             =  -3.4249146211835E-02
(PID.TID 0000.0001) %MON dynstat_uvel_mean            =  -9.1479801505290E-07
(PID.TID 0000.0001) %MON dynstat_uvel_sd              =   8.4304938751202E-03
(PID.TID 0000.0001) %MON dynstat_uvel_del2            =   2.3349505531231E-04
(PID.TID 0000.0001) %MON dynstat_vvel_max             =   1.4660195163405E-02
(PID.TID 0000.0001) %MON dynstat_vvel_min             =  -1.4658077125205E-02
(PID.TID 0000.0001) %MON dynstat_vvel_mean            =   3.4637893316563E-10
(PID.TID 0000.0001) %MON dynstat_vvel_sd              =   2.9986386258832E-03
(PID.TID 0000.0001) %MON dynstat_vvel_del2            =   1.4671390281164E-04
(PID.TID 0000.0001) %MON dynstat_wvel_max             =   3.3327351251727E-04
(PID.TID 0000.0001) %MON dynstat_wvel_min             =  -3.3337184072382E-04
(PID.TID 0000.0001) %MON dynstat_wvel_mean            =  -1.8201210753592E-21
(PID.TID 0000.0001) %MON dynstat_wvel_sd              =   9.0112665597739E-05
(PID.TID 0000.0001) %MON dynstat_wvel_del2            =   8.9740327420746E-06
(PID.TID 0000.0001) %MON dynstat_theta_max            =   1.7020391872706E+01
(PID.TID 0000.0001) %MON dynstat_theta_min            =   1.6979608188987E+01
(PID.TID 0000.0001) %MON dynstat_theta_mean           =   1.6999999916856E+01
(PID.TID 0000.0001) %MON dynstat_theta_sd             =   1.8681371596993E-02
(PID.TID 0000.0001) %MON dynstat_theta_del2           =   1.9659319193848E-04
(PID.TID 0000.0001) %MON dynstat_salt_max             =   1.7020387109310E+01
(PID.TID 0000.0001) %MON dynstat_salt_min             =   1.6979612982852E+01
(PID.TID 0000.0001) %MON dynstat_salt_mean            =   1.7000000005831E+01
(PID.TID 0000.0001) %MON dynstat_salt_sd              =   1.8684757706581E-02
(PID.TID 0000.0001) %MON dynstat_salt_del2            =   1.9034802456455E-04
(PID.TID 0000.0001) %MON advcfl_uvel_max              =   4.1098975454202E-02
(PID.TID 0000.0001) %MON advcfl_vvel_max              =   1.7592234196086E-02
(PID.TID 0000.0001) %MON advcfl_wvel_max              =   8.0009241773716E-02
(PID.TID 0000.0001) %MON advcfl_W_hf_max              =   8.0009241773716E-02
(PID.TID 0000.0001) %MON pe_b_mean                    =   3.4186656287765E-09
(PID.TID 0000.0001) %MON ke_max                       =   6.8374496495562E-04
(PID.TID 0000.0001) %MON ke_mean                      =   3.9852694039794E-05
(PID.TID 0000.0001) %MON ke_vol                       =   2.5000000000000E+11
(PID.TID 0000.0001) %MON vort_r_min                   =  -9.6623450975828E-06
(PID.TID 0000.0001) %MON vort_r_max                   =   1.0956980029960E-05
(PID.TID 0000.0001) %MON vort_a_mean                  =   7.2900000000000E-05
(PID.TID 0000.0001) %MON vort_a_sd                    =   2.8017704275329E-06
(PID.TID 0000.0001) %MON vort_p_mean                  =   7.7363265306122E-05
(PID.TID 0000.0001) %MON vort_p_sd                    =   3.1056815917874E-05
(PID.TID 0000.0001) %MON surfExpan_theta_mean         =   8.5051205026776E-13
(PID.TID 0000.0001) %MON surfExpan_salt_mean          =   5.9945664961963E-18
(PID.TID 0000.0001) // =======================================================
(PID.TID 0000.0001) // End MONITOR dynamic field statistics
(PID.TID 0000.0001) // =======================================================
 cg2d: Sum(rhs),rhsMax =  -2.22371058199167E-13  7.32557352196428E-04
(PID.TID 0000.0001)                    cg2d_init_res =    2.26636764734226E-01
(PID.TID 0000.0001)                       cg2d_iters =    78
(PID.TID 0000.0001)                         cg2d_res =    7.94328347740292E-12
(PID.TID 0000.0001) // =======================================================
(PID.TID 0000.0001) // Begin MONITOR dynamic field statistics
(PID.TID 0000.0001) // =======================================================
(PID.TID 0000.0001) %MON time_tsnumber                =                    31
(PID.TID 0000.0001) %MON time_secondsf                =   3.7200000000000E+04
(PID.TID 0000.0001) %MON dynstat_eta_max              =   3.9931346022582E-04
(PID.TID 0000.0001) %MON dynstat_eta_min              =  -4.1619192900565E-04
(PID.TID 0000.0001) %MON dynstat_eta_mean             =   2.8362498643575E-17
(PID.TID 0000.0001) %MON dynstat_eta_sd               =   3.7336760704043E-04
(PID.TID 0000.0001) %MON dynstat_eta_del2             =   3.8875889534139E-06
(PID.TID 0000.0001) %MON dynstat_uvel_max             =   3.4831067141030E-02
(PID.TID 0000.0001) %MON dynstat_uvel_min             =  -3.4834012563653E-02
(PID.TID 0000.0001) %MON dynstat_uvel_mean            =  -9.1483167416405E-07
(PID.TID 0000.0001) %MON dynstat_uvel_sd              =   8.5979651625617E-03
(PID.TID 0000.0001) %MON dynstat_uvel_del2            =   2.3793460160310E-04
(PID.TID 0000.0001) %MON dynstat_vvel_max             =   1.3496718035554E-02
(PID.TID 0000.0001) %MON dynstat_vvel_min             =  -1.3494618656132E-02
(PID.TID 0000.0001) %MON dynstat_vvel_mean            =   3.2559596310677E-10
(PID.TID 0000.0001) %MON dynstat_vvel_sd              =   2.6985846421734E-03
(PID.TID 0000.0001) %MON dynstat_vvel_del2            =   1.4141154877610E-04
(PID.TID 0000.0001) %MON dynstat_wvel_max             =   3.1646480478432E-04
(PID.TID 0000.0001) %MON dynstat_wvel_min             =  -3.1656343289012E-04
(PID.TID 0000.0001) %MON dynstat_wvel_mean            =   3.1283648370898E-21
(PID.TID 0000.0001) %MON dynstat_wvel_sd              =   8.4991500979620E-05
(PID.TID 0000.0001) %MON dynstat_wvel_del2            =   8.7846203916128E-06
(PID.TID 0000.0001) %MON dynstat_theta_max            =   1.7020391872705E+01
(PID.TID 0000.0001) %MON dynstat_theta_min            =   1.6979608188987E+01
(PID.TID 0000.0001) %MON dynstat_theta_mean           =   1.6999999916851E+01
(PID.TID 0000.0001) %MON dynstat_theta_sd             =   1.8681247569123E-02
(PID.TID 0000.0001) %MON dynstat_theta_del2           =   1.9651092393013E-04
(PID.TID 0000.0001) %MON dynstat_salt_max             =   1.7020387109310E+01
(PID.TID 0000.0001) %MON dynstat_salt_min             =   1.6979612982852E+01
(PID.TID 0000.0001) %MON dynstat_salt_mean            =   1.7000000005831E+01
(PID.TID 0000.0001) %MON dynstat_salt_sd              =   1.8684715213443E-02
(PID.TID 0000.0001) %MON dynstat_salt_del2            =   1.9043471055773E-04
(PID.TID 0000.0001) %MON advcfl_uvel_max              =   4.1800815076383E-02
(PID.TID 0000.0001) %MON advcfl_vvel_max              =   1.6196061642664E-02
(PID.TID 0000.0001) %MON advcfl_wvel_max              =   7.5975223893629E-02
(PID.TID 0000.0001) %MON advcfl_W_hf_max              =   7.5975223893629E-02
(PID.TID 0000.0001) %MON pe_b_mean                    =   3.4188676489336E-09
(PID.TID 0000.0001) %MON ke_max                       =   6.8813775140722E-04
(PID.TID 0000.0001) %MON ke_mean                      =   4.0458035240839E-05
(PID.TID 0000.0001) %MON ke_vol                       =   2.5000000000000E+11
(PID.TID 0000.0001) %MON vort_r_min                   =  -9.8062301385832E-06
(PID.TID 0000.0001) %MON vort_r_max                   =   1.1168410084400E-05
(PID.TID 0000.0001) %MON vort_a_mean                  =   7.2900000000000E-05
(PID.TID 0000.0001) %MON vort_a_sd                    =   2.8512449469649E-06
(PID.TID 0000.0001) %MON vort_p_mean                  =   7.7363265306122E-05
(PID.TID 0000.0001) %MON vort_p_sd                    =   3.1061593826294E-05
(PID.TID 0000.0001) %MON surfExpan_theta_mean         =   8.1915639819020E-13
(PID.TID 0000.0001) %MON surfExpan_salt_mean          =  -2.1739832769894E-17
(PID.TID 0000.0001) // =======================================================
(PID.TID 0000.0001) // End MONITOR dynamic field statistics
(PID.TID 0000.0001) // =======================================================
 cg2d: Sum(rhs),rhsMax =  -2.58053506948380E-13  7.38289611898628E-04
(PID.TID 0000.0001)                    cg2d_init_res =    2.06883441782727E-01
(PID.TID 0000.0001)                       cg2d_iters =    78
(PID.TID 0000.0001)                         cg2d_res =    7.79969797532346E-12
(PID.TID 0000.0001) // =======================================================
(PID.TID 0000.0001) // Begin MONITOR dynamic field statistics
(PID.TID 0000.0001) // =======================================================
(PID.TID 0000.0001) %MON time_tsnumber                =                    32
(PID.TID 0000.0001) %MON time_secondsf                =   3.8400000000000E+04
(PID.TID 0000.0001) %MON dynstat_eta_max              =   3.9883212654986E-04
(PID.TID 0000.0001) %MON dynstat_eta_min              =  -4.1667328216495E-04
(PID.TID 0000.0001) %MON dynstat_eta_mean             =   2.1432248480391E-17
(PID.TID 0000.0001) %MON dynstat_eta_sd               =   3.7337967364789E-04
(PID.TID 0000.0001) %MON dynstat_eta_del2             =   3.8909961002324E-06
(PID.TID 0000.0001) %MON dynstat_uvel_max             =   3.5307965879255E-02
(PID.TID 0000.0001) %MON dynstat_uvel_min             =  -3.5310776886490E-02
(PID.TID 0000.0001) %MON dynstat_uvel_mean            =  -9.1486408162613E-07
(PID.TID 0000.0001) %MON dynstat_uvel_sd              =   8.7362325123085E-03
(PID.TID 0000.0001) %MON dynstat_uvel_del2            =   2.4160674074192E-04
(PID.TID 0000.0001) %MON dynstat_vvel_max             =   1.2298592912377E-02
(PID.TID 0000.0001) %MON dynstat_vvel_min             =  -1.2296508178449E-02
(PID.TID 0000.0001) %MON dynstat_vvel_mean            =   3.0095926332186E-10
(PID.TID 0000.0001) %MON dynstat_vvel_sd              =   2.3956477099570E-03
(PID.TID 0000.0001) %MON dynstat_vvel_del2            =   1.3647166382193E-04
(PID.TID 0000.0001) %MON dynstat_wvel_max             =   2.9899487634360E-04
(PID.TID 0000.0001) %MON dynstat_wvel_min             =  -2.9909421686122E-04
(PID.TID 0000.0001) %MON dynstat_wvel_mean            =   1.7486214665883E-22
(PID.TID 0000.0001) %MON dynstat_wvel_sd              =   7.9868536174605E-05
(PID.TID 0000.0001) %MON dynstat_wvel_del2            =   8.5981297945784E-06
(PID.TID 0000.0001) %MON dynstat_theta_max            =   1.7020391872704E+01
(PID.TID 0000.0001) %MON dynstat_theta_min            =   1.6979608188987E+01
(PID.TID 0000.0001) %MON dynstat_theta_mean           =   1.6999999916846E+01
(PID.TID 0000.0001) %MON dynstat_theta_sd             =   1.8681133274028E-02
(PID.TID 0000.0001) %MON dynstat_theta_del2           =   1.9642477094121E-04
(PID.TID 0000.0001) %MON dynstat_salt_max             =   1.7020387109310E+01
(PID.TID 0000.0001) %MON dynstat_salt_min             =   1.6979612982852E+01
(PID.TID 0000.0001) %MON dynstat_salt_mean            =   1.7000000005831E+01
(PID.TID 0000.0001) %MON dynstat_salt_sd              =   1.8684672114181E-02
(PID.TID 0000.0001) %MON dynstat_salt_del2            =   1.9052023365317E-04
(PID.TID 0000.0001) %MON advcfl_uvel_max              =   4.2372932263788E-02
(PID.TID 0000.0001) %MON advcfl_vvel_max              =   1.4758311494852E-02
(PID.TID 0000.0001) %MON advcfl_wvel_max              =   7.1782612046692E-02
(PID.TID 0000.0001) %MON advcfl_W_hf_max              =   7.1782612046692E-02
(PID.TID 0000.0001) %MON pe_b_mean                    =   3.4190886365057E-09
(PID.TID 0000.0001) %MON ke_max                       =   6.9007274522819E-04
(PID.TID 0000.0001) %MON ke_mean                      =   4.0915661089153E-05
(PID.TID 0000.0001) %MON ke_vol                       =   2.5000000000000E+11
(PID.TID 0000.0001) %MON vort_r_min                   =  -9.9240228222989E-06
(PID.TID 0000.0001) %MON vort_r_max                   =   1.1342594059360E-05
(PID.TID 0000.0001) %MON vort_a_mean                  =   7.2899999999999E-05
(PID.TID 0000.0001) %MON vort_a_sd                    =   2.8920582775152E-06
(PID.TID 0000.0001) %MON vort_p_mean                  =   7.7363265306121E-05
(PID.TID 0000.0001) %MON vort_p_sd                    =   3.1065597674149E-05
(PID.TID 0000.0001) %MON surfExpan_theta_mean         =   7.6828705699902E-13
(PID.TID 0000.0001) %MON surfExpan_salt_mean          =  -4.9986032035113E-17
(PID.TID 0000.0001) // =======================================================
(PID.TID 0000.0001) // End MONITOR dynamic field statistics
(PID.TID 0000.0001) // =======================================================
 cg2d: Sum(rhs),rhsMax =  -1.17514017180381E-13  7.43523143447463E-04
(PID.TID 0000.0001)                    cg2d_init_res =    1.86131723126772E-01
(PID.TID 0000.0001)                       cg2d_iters =    78
(PID.TID 0000.0001)                         cg2d_res =    7.60974771053057E-12
(PID.TID 0000.0001) // =======================================================
(PID.TID 0000.0001) // Begin MONITOR dynamic field statistics
(PID.TID 0000.0001) // =======================================================
(PID.TID 0000.0001) %MON time_tsnumber                =                    33
(PID.TID 0000.0001) %MON time_secondsf                =   3.9600000000000E+04
(PID.TID 0000.0001) %MON dynstat_eta_max              =   3.9840348258756E-04
(PID.TID 0000.0001) %MON dynstat_eta_min              =  -4.1710194598703E-04
(PID.TID 0000.0001) %MON dynstat_eta_mean             =   2.7566275161428E-17
(PID.TID 0000.0001) %MON dynstat_eta_sd               =   3.7339188526907E-04
(PID.TID 0000.0001) %MON dynstat_eta_del2             =   3.8936586404959E-06
(PID.TID 0000.0001) %MON dynstat_uvel_max             =   3.5676056232125E-02
(PID.TID 0000.0001) %MON dynstat_uvel_min             =  -3.5678738929290E-02
(PID.TID 0000.0001) %MON dynstat_uvel_mean            =  -9.1489446850740E-07
(PID.TID 0000.0001) %MON dynstat_uvel_sd              =   8.8446461784803E-03
(PID.TID 0000.0001) %MON dynstat_uvel_del2            =   2.4451212850961E-04
(PID.TID 0000.0001) %MON dynstat_vvel_max             =   1.1075646083897E-02
(PID.TID 0000.0001) %MON dynstat_vvel_min             =  -1.1073572204450E-02
(PID.TID 0000.0001) %MON dynstat_vvel_mean            =   2.7269959738553E-10
(PID.TID 0000.0001) %MON dynstat_vvel_sd              =   2.0966355246269E-03
(PID.TID 0000.0001) %MON dynstat_vvel_del2            =   1.3217311114696E-04
(PID.TID 0000.0001) %MON dynstat_wvel_max             =   2.8105157551968E-04
(PID.TID 0000.0001) %MON dynstat_wvel_min             =  -2.8115204850445E-04
(PID.TID 0000.0001) %MON dynstat_wvel_mean            =   5.8229509110959E-22
(PID.TID 0000.0001) %MON dynstat_wvel_sd              =   7.4831196093322E-05
(PID.TID 0000.0001) %MON dynstat_wvel_del2            =   8.4185839120724E-06
(PID.TID 0000.0001) %MON dynstat_theta_max            =   1.7020391872704E+01
(PID.TID 0000.0001) %MON dynstat_theta_min            =   1.6979608188987E+01
(PID.TID 0000.0001) %MON dynstat_theta_mean           =   1.6999999916842E+01
(PID.TID 0000.0001) %MON dynstat_theta_sd             =   1.8681029301121E-02
(PID.TID 0000.0001) %MON dynstat_theta_del2           =   1.9633835847708E-04
(PID.TID 0000.0001) %MON dynstat_salt_max             =   1.7020387109310E+01
(PID.TID 0000.0001) %MON dynstat_salt_min             =   1.6979612982851E+01
(PID.TID 0000.0001) %MON dynstat_salt_mean            =   1.7000000005831E+01
(PID.TID 0000.0001) %MON dynstat_salt_sd              =   1.8684628574302E-02
(PID.TID 0000.0001) %MON dynstat_salt_del2            =   1.9063354603395E-04
(PID.TID 0000.0001) %MON advcfl_uvel_max              =   4.2814486715148E-02
(PID.TID 0000.0001) %MON advcfl_vvel_max              =   1.3290775300676E-02
(PID.TID 0000.0001) %MON advcfl_wvel_max              =   6.7476491641067E-02
(PID.TID 0000.0001) %MON advcfl_W_hf_max              =   6.7476491641067E-02
(PID.TID 0000.0001) %MON pe_b_mean                    =   3.4193122871270E-09
(PID.TID 0000.0001) %MON ke_max                       =   6.8959316629671E-04
(PID.TID 0000.0001) %MON ke_mean                      =   4.1223906080870E-05
(PID.TID 0000.0001) %MON ke_vol                       =   2.5000000000000E+11
(PID.TID 0000.0001) %MON vort_r_min                   =  -1.0016212119115E-05
(PID.TID 0000.0001) %MON vort_r_max                   =   1.1480051377014E-05
(PID.TID 0000.0001) %MON vort_a_mean                  =   7.2900000000001E-05
(PID.TID 0000.0001) %MON vort_a_sd                    =   2.9242009615427E-06
(PID.TID 0000.0001) %MON vort_p_mean                  =   7.7363265306123E-05
(PID.TID 0000.0001) %MON vort_p_sd                    =   3.1068790595745E-05
(PID.TID 0000.0001) %MON surfExpan_theta_mean         =   6.9966344389841E-13
(PID.TID 0000.0001) %MON surfExpan_salt_mean          =  -7.7608818314827E-17
(PID.TID 0000.0001) // =======================================================
(PID.TID 0000.0001) // End MONITOR dynamic field statistics
(PID.TID 0000.0001) // =======================================================
 cg2d: Sum(rhs),rhsMax =  -2.82366198565281E-13  7.48284673169505E-04
(PID.TID 0000.0001)                    cg2d_init_res =    1.64797683934258E-01
(PID.TID 0000.0001)                       cg2d_iters =    78
(PID.TID 0000.0001)                         cg2d_res =    7.34479649376054E-12
(PID.TID 0000.0001) // =======================================================
(PID.TID 0000.0001) // Begin MONITOR dynamic field statistics
(PID.TID 0000.0001) // =======================================================
(PID.TID 0000.0001) %MON time_tsnumber                =                    34
(PID.TID 0000.0001) %MON time_secondsf                =   4.0800000000000E+04
(PID.TID 0000.0001) %MON dynstat_eta_max              =   3.9803313584439E-04
(PID.TID 0000.0001) %MON dynstat_eta_min              =  -4.1747231364365E-04
(PID.TID 0000.0001) %MON dynstat_eta_mean             =   3.7668272360736E-17
(PID.TID 0000.0001) %MON dynstat_eta_sd               =   3.7340339120064E-04
(PID.TID 0000.0001) %MON dynstat_eta_del2             =   3.8956169564547E-06
(PID.TID 0000.0001) %MON dynstat_uvel_max             =   3.5935376884272E-02
(PID.TID 0000.0001) %MON dynstat_uvel_min             =  -3.5937937092996E-02
(PID.TID 0000.0001) %MON dynstat_uvel_mean            =  -9.1492218658121E-07
(PID.TID 0000.0001) %MON dynstat_uvel_sd              =   8.9227886278415E-03
(PID.TID 0000.0001) %MON dynstat_uvel_del2            =   2.4665896950737E-04
(PID.TID 0000.0001) %MON dynstat_vvel_max             =   9.8376030843570E-03
(PID.TID 0000.0001) %MON dynstat_vvel_min             =  -9.8355365964784E-03
(PID.TID 0000.0001) %MON dynstat_vvel_mean            =   2.4133878689237E-10
(PID.TID 0000.0001) %MON dynstat_vvel_sd              =   1.8109271595103E-03
(PID.TID 0000.0001) %MON dynstat_vvel_del2            =   1.2814841849695E-04
(PID.TID 0000.0001) %MON dynstat_wvel_max             =   2.6281583248073E-04
(PID.TID 0000.0001) %MON dynstat_wvel_min             =  -2.6291787223898E-04
(PID.TID 0000.0001) %MON dynstat_wvel_mean            =   1.8684246966788E-22
(PID.TID 0000.0001) %MON dynstat_wvel_sd              =   6.9972474009480E-05
(PID.TID 0000.0001) %MON dynstat_wvel_del2            =   8.2493277914143E-06
(PID.TID 0000.0001) %MON dynstat_theta_max            =   1.7020391872704E+01
(PID.TID 0000.0001) %MON dynstat_theta_min            =   1.6979608188987E+01
(PID.TID 0000.0001) %MON dynstat_theta_mean           =   1.6999999916839E+01
(PID.TID 0000.0001) %MON dynstat_theta_sd             =   1.8680936301812E-02
(PID.TID 0000.0001) %MON dynstat_theta_del2           =   1.9625495951973E-04
(PID.TID 0000.0001) %MON dynstat_salt_max             =   1.7020387109310E+01
(PID.TID 0000.0001) %MON dynstat_salt_min             =   1.6979612982851E+01
(PID.TID 0000.0001) %MON dynstat_salt_mean            =   1.7000000005831E+01
(PID.TID 0000.0001) %MON dynstat_salt_sd              =   1.8684584772165E-02
(PID.TID 0000.0001) %MON dynstat_salt_del2            =   1.9076732590582E-04
(PID.TID 0000.0001) %MON advcfl_uvel_max              =   4.3125524511595E-02
(PID.TID 0000.0001) %MON advcfl_vvel_max              =   1.1805123701228E-02
(PID.TID 0000.0001) %MON advcfl_wvel_max              =   6.3100289337355E-02
(PID.TID 0000.0001) %MON advcfl_W_hf_max              =   6.3100289337355E-02
(PID.TID 0000.0001) %MON pe_b_mean                    =   3.4195230200375E-09
(PID.TID 0000.0001) %MON ke_max                       =   6.8675551719392E-04
(PID.TID 0000.0001) %MON ke_mean                      =   4.1382218312095E-05
(PID.TID 0000.0001) %MON ke_vol                       =   2.5000000000000E+11
(PID.TID 0000.0001) %MON vort_r_min                   =  -1.0083445327857E-05
(PID.TID 0000.0001) %MON vort_r_max                   =   1.1581655930654E-05
(PID.TID 0000.0001) %MON vort_a_mean                  =   7.2900000000001E-05
(PID.TID 0000.0001) %MON vort_a_sd                    =   2.9477301092612E-06
(PID.TID 0000.0001) %MON vort_p_mean                  =   7.7363265306123E-05
(PID.TID 0000.0001) %MON vort_p_sd                    =   3.1071150036939E-05
(PID.TID 0000.0001) %MON surfExpan_theta_mean         =   6.1565372289301E-13
(PID.TID 0000.0001) %MON surfExpan_salt_mean          =  -1.0355735555045E-16
(PID.TID 0000.0001) // =======================================================
(PID.TID 0000.0001) // End MONITOR dynamic field statistics
(PID.TID 0000.0001) // =======================================================
 cg2d: Sum(rhs),rhsMax =  -1.57439165870965E-13  7.52598584407941E-04
(PID.TID 0000.0001)                    cg2d_init_res =    1.43328270742045E-01
(PID.TID 0000.0001)                       cg2d_iters =    78
(PID.TID 0000.0001)                         cg2d_res =    7.04219318152352E-12
(PID.TID 0000.0001) // =======================================================
(PID.TID 0000.0001) // Begin MONITOR dynamic field statistics
(PID.TID 0000.0001) // =======================================================
(PID.TID 0000.0001) %MON time_tsnumber                =                    35
(PID.TID 0000.0001) %MON time_secondsf                =   4.2000000000000E+04
(PID.TID 0000.0001) %MON dynstat_eta_max              =   3.9772545289651E-04
(PID.TID 0000.0001) %MON dynstat_eta_min              =  -4.1778001853942E-04
(PID.TID 0000.0001) %MON dynstat_eta_mean             =   4.0959504964966E-17
(PID.TID 0000.0001) %MON dynstat_eta_sd               =   3.7341343585034E-04
(PID.TID 0000.0001) %MON dynstat_eta_del2             =   3.8969207095437E-06
(PID.TID 0000.0001) %MON dynstat_uvel_max             =   3.6086684198434E-02
(PID.TID 0000.0001) %MON dynstat_uvel_min             =  -3.6089127221068E-02
(PID.TID 0000.0001) %MON dynstat_uvel_mean            =  -9.1494669886740E-07
(PID.TID 0000.0001) %MON dynstat_uvel_sd              =   8.9704746619240E-03
(PID.TID 0000.0001) %MON dynstat_uvel_del2            =   2.4806235516040E-04
(PID.TID 0000.0001) %MON dynstat_vvel_max             =   8.5940299014055E-03
(PID.TID 0000.0001) %MON dynstat_vvel_min             =  -8.5919675834911E-03
(PID.TID 0000.0001) %MON dynstat_vvel_mean            =   2.0736400528322E-10
(PID.TID 0000.0001) %MON dynstat_vvel_sd              =   1.5521667445208E-03
(PID.TID 0000.0001) %MON dynstat_vvel_del2            =   1.2428814063260E-04
(PID.TID 0000.0001) %MON dynstat_wvel_max             =   2.4445933484125E-04
(PID.TID 0000.0001) %MON dynstat_wvel_min             =  -2.4456336784498E-04
(PID.TID 0000.0001) %MON dynstat_wvel_mean            =   1.1669558549947E-21
(PID.TID 0000.0001) %MON dynstat_wvel_sd              =   6.5390505747317E-05
(PID.TID 0000.0001) %MON dynstat_wvel_del2            =   8.0921343151551E-06
(PID.TID 0000.0001) %MON dynstat_theta_max            =   1.7020391872704E+01
(PID.TID 0000.0001) %MON dynstat_theta_min            =   1.6979608188987E+01
(PID.TID 0000.0001) %MON dynstat_theta_mean           =   1.6999999916836E+01
(PID.TID 0000.0001) %MON dynstat_theta_sd             =   1.8680854915848E-02
(PID.TID 0000.0001) %MON dynstat_theta_del2           =   1.9617745639173E-04
(PID.TID 0000.0001) %MON dynstat_salt_max             =   1.7020387109310E+01
(PID.TID 0000.0001) %MON dynstat_salt_min             =   1.6979612982851E+01
(PID.TID 0000.0001) %MON dynstat_salt_mean            =   1.7000000005831E+01
(PID.TID 0000.0001) %MON dynstat_salt_sd              =   1.8684540865207E-02
(PID.TID 0000.0001) %MON dynstat_salt_del2            =   1.9092041364588E-04
(PID.TID 0000.0001) %MON advcfl_uvel_max              =   4.3306952665282E-02
(PID.TID 0000.0001) %MON advcfl_vvel_max              =   1.0312835881687E-02
(PID.TID 0000.0001) %MON advcfl_wvel_max              =   5.8695208282796E-02
(PID.TID 0000.0001) %MON advcfl_W_hf_max              =   5.8695208282796E-02
(PID.TID 0000.0001) %MON pe_b_mean                    =   3.4197069946540E-09
(PID.TID 0000.0001) %MON ke_max                       =   6.8162856088524E-04
(PID.TID 0000.0001) %MON ke_mean                      =   4.1391134618016E-05
(PID.TID 0000.0001) %MON ke_vol                       =   2.5000000000000E+11
(PID.TID 0000.0001) %MON vort_r_min                   =  -1.0126515715640E-05
(PID.TID 0000.0001) %MON vort_r_max                   =   1.1648579533759E-05
(PID.TID 0000.0001) %MON vort_a_mean                  =   7.2900000000000E-05
(PID.TID 0000.0001) %MON vort_a_sd                    =   2.9627664300863E-06
(PID.TID 0000.0001) %MON vort_p_mean                  =   7.7363265306123E-05
(PID.TID 0000.0001) %MON vort_p_sd                    =   3.1072667638920E-05
(PID.TID 0000.0001) %MON surfExpan_theta_mean         =   5.1920002168044E-13
(PID.TID 0000.0001) %MON surfExpan_salt_mean          =  -1.2863418204243E-16
(PID.TID 0000.0001) // =======================================================
(PID.TID 0000.0001) // End MONITOR dynamic field statistics
(PID.TID 0000.0001) // =======================================================
 cg2d: Sum(rhs),rhsMax =  -1.81838431031339E-13  7.56492021731918E-04
(PID.TID 0000.0001)                    cg2d_init_res =    1.22112401824077E-01
(PID.TID 0000.0001)                       cg2d_iters =    78
(PID.TID 0000.0001)                         cg2d_res =    6.80675291557342E-12
(PID.TID 0000.0001) // =======================================================
(PID.TID 0000.0001) // Begin MONITOR dynamic field statistics
(PID.TID 0000.0001) // =======================================================
(PID.TID 0000.0001) %MON time_tsnumber                =                    36
(PID.TID 0000.0001) %MON time_secondsf                =   4.3200000000000E+04
(PID.TID 0000.0001) %MON dynstat_eta_max              =   3.9748347172010E-04
(PID.TID 0000.0001) %MON dynstat_eta_min              =  -4.1802202281596E-04
(PID.TID 0000.0001) %MON dynstat_eta_mean             =   3.3500685454046E-17
(PID.TID 0000.0001) %MON dynstat_eta_sd               =   3.7342140091222E-04
(PID.TID 0000.0001) %MON dynstat_eta_del2             =   3.8976290049513E-06
(PID.TID 0000.0001) %MON dynstat_uvel_max             =   3.6131428704265E-02
(PID.TID 0000.0001) %MON dynstat_uvel_min             =  -3.6133760023728E-02
(PID.TID 0000.0001) %MON dynstat_uvel_mean            =  -9.1496761596528E-07
(PID.TID 0000.0001) %MON dynstat_uvel_sd              =   8.9877501144532E-03
(PID.TID 0000.0001) %MON dynstat_uvel_del2            =   2.4874346736139E-04
(PID.TID 0000.0001) %MON dynstat_vvel_max             =   7.3542765966975E-03
(PID.TID 0000.0001) %MON dynstat_vvel_min             =  -7.3522154636103E-03
(PID.TID 0000.0001) %MON dynstat_vvel_mean            =   1.7131302317802E-10
(PID.TID 0000.0001) %MON dynstat_vvel_sd              =   1.3404169624506E-03
(PID.TID 0000.0001) %MON dynstat_vvel_del2            =   1.2099773522061E-04
(PID.TID 0000.0001) %MON dynstat_wvel_max             =   2.2620930226777E-04
(PID.TID 0000.0001) %MON dynstat_wvel_min             =  -2.2631296768558E-04
(PID.TID 0000.0001) %MON dynstat_wvel_mean            =   8.5863588635199E-22
(PID.TID 0000.0001) %MON dynstat_wvel_sd              =   6.1186957954450E-05
(PID.TID 0000.0001) %MON dynstat_wvel_del2            =   7.9483993751142E-06
(PID.TID 0000.0001) %MON dynstat_theta_max            =   1.7020391872703E+01
(PID.TID 0000.0001) %MON dynstat_theta_min            =   1.6979608188987E+01
(PID.TID 0000.0001) %MON dynstat_theta_mean           =   1.6999999916833E+01
(PID.TID 0000.0001) %MON dynstat_theta_sd             =   1.8680785412019E-02
(PID.TID 0000.0001) %MON dynstat_theta_del2           =   1.9610822885259E-04
(PID.TID 0000.0001) %MON dynstat_salt_max             =   1.7020387109310E+01
(PID.TID 0000.0001) %MON dynstat_salt_min             =   1.6979612982851E+01
(PID.TID 0000.0001) %MON dynstat_salt_mean            =   1.7000000005831E+01
(PID.TID 0000.0001) %MON dynstat_salt_sd              =   1.8684497008034E-02
(PID.TID 0000.0001) %MON dynstat_salt_del2            =   1.9107587528142E-04
(PID.TID 0000.0001) %MON advcfl_uvel_max              =   4.3360512028474E-02
(PID.TID 0000.0001) %MON advcfl_vvel_max              =   8.8251319160370E-03
(PID.TID 0000.0001) %MON advcfl_wvel_max              =   5.4315112244538E-02
(PID.TID 0000.0001) %MON advcfl_W_hf_max              =   5.4315112244538E-02
(PID.TID 0000.0001) %MON pe_b_mean                    =   3.4198528837180E-09
(PID.TID 0000.0001) %MON ke_max                       =   6.7429241024627E-04
(PID.TID 0000.0001) %MON ke_mean                      =   4.1252250942457E-05
(PID.TID 0000.0001) %MON ke_vol                       =   2.5000000000000E+11
(PID.TID 0000.0001) %MON vort_r_min                   =  -1.0146349632435E-05
(PID.TID 0000.0001) %MON vort_r_max                   =   1.1682238638869E-05
(PID.TID 0000.0001) %MON vort_a_mean                  =   7.2900000000000E-05
(PID.TID 0000.0001) %MON vort_a_sd                    =   2.9694910270366E-06
(PID.TID 0000.0001) %MON vort_p_mean                  =   7.7363265306122E-05
(PID.TID 0000.0001) %MON vort_p_sd                    =   3.1073348809749E-05
(PID.TID 0000.0001) %MON surfExpan_theta_mean         =   4.1361063231934E-13
(PID.TID 0000.0001) %MON surfExpan_salt_mean          =  -1.5287602945086E-16
(PID.TID 0000.0001) // =======================================================
(PID.TID 0000.0001) // End MONITOR dynamic field statistics
(PID.TID 0000.0001) // =======================================================
(PID.TID 0000.0001) %CHECKPOINT        36 0000000036
 cg2d: Sum(rhs),rhsMax =  -1.60532936770152E-13  7.60001959117780E-04
(PID.TID 0000.0001)                    cg2d_init_res =    1.01553990435842E-01
(PID.TID 0000.0001)                       cg2d_iters =    78
(PID.TID 0000.0001)                         cg2d_res =    6.50722589121476E-12
(PID.TID 0000.0001) // =======================================================
(PID.TID 0000.0001) // Begin MONITOR dynamic field statistics
(PID.TID 0000.0001) // =======================================================
(PID.TID 0000.0001) %MON time_tsnumber                =                    37
(PID.TID 0000.0001) %MON time_secondsf                =   4.4400000000000E+04
(PID.TID 0000.0001) %MON dynstat_eta_max              =   3.9730885070898E-04
(PID.TID 0000.0001) %MON dynstat_eta_min              =  -4.1819666840595E-04
(PID.TID 0000.0001) %MON dynstat_eta_mean             =   3.1427990653254E-17
(PID.TID 0000.0001) %MON dynstat_eta_sd               =   3.7342683080043E-04
(PID.TID 0000.0001) %MON dynstat_eta_del2             =   3.8978061946512E-06
(PID.TID 0000.0001) %MON dynstat_uvel_max             =   3.6071730918609E-02
(PID.TID 0000.0001) %MON dynstat_uvel_min             =  -3.6073955430841E-02
(PID.TID 0000.0001) %MON dynstat_uvel_mean            =  -9.1498470612950E-07
(PID.TID 0000.0001) %MON dynstat_uvel_sd              =   8.9748891831015E-03
(PID.TID 0000.0001) %MON dynstat_uvel_del2            =   2.4872898028568E-04
(PID.TID 0000.0001) %MON dynstat_vvel_max             =   6.1274234900635E-03
(PID.TID 0000.0001) %MON dynstat_vvel_min             =  -6.1253609565333E-03
(PID.TID 0000.0001) %MON dynstat_vvel_mean            =   1.3390177673831E-10
(PID.TID 0000.0001) %MON dynstat_vvel_sd              =   1.2023156704564E-03
(PID.TID 0000.0001) %MON dynstat_vvel_del2            =   1.1832803113677E-04
(PID.TID 0000.0001) %MON dynstat_wvel_max             =   2.0837365105511E-04
(PID.TID 0000.0001) %MON dynstat_wvel_min             =  -2.0848010555410E-04
(PID.TID 0000.0001) %MON dynstat_wvel_mean            =  -1.0182145504514E-21
(PID.TID 0000.0001) %MON dynstat_wvel_sd              =   5.7463373887013E-05
(PID.TID 0000.0001) %MON dynstat_wvel_del2            =   7.8183010810695E-06
(PID.TID 0000.0001) %MON dynstat_theta_max            =   1.7020391872703E+01
(PID.TID 0000.0001) %MON dynstat_theta_min            =   1.6979608188987E+01
(PID.TID 0000.0001) %MON dynstat_theta_mean           =   1.6999999916831E+01
(PID.TID 0000.0001) %MON dynstat_theta_sd             =   1.8680727755302E-02
(PID.TID 0000.0001) %MON dynstat_theta_del2           =   1.9604947095204E-04
(PID.TID 0000.0001) %MON dynstat_salt_max             =   1.7020387109310E+01
(PID.TID 0000.0001) %MON dynstat_salt_min             =   1.6979612982851E+01
(PID.TID 0000.0001) %MON dynstat_salt_mean            =   1.7000000005831E+01
(PID.TID 0000.0001) %MON dynstat_salt_sd              =   1.8684453318130E-02
(PID.TID 0000.0001) %MON dynstat_salt_del2            =   1.9123973164789E-04
(PID.TID 0000.0001) %MON advcfl_uvel_max              =   4.3288746517010E-02
(PID.TID 0000.0001) %MON advcfl_vvel_max              =   7.3529081880762E-03
(PID.TID 0000.0001) %MON advcfl_wvel_max              =   5.0035225332984E-02
(PID.TID 0000.0001) %MON advcfl_W_hf_max              =   5.0035225332984E-02
(PID.TID 0000.0001) %MON pe_b_mean                    =   3.4199523400096E-09
(PID.TID 0000.0001) %MON ke_max                       =   6.6483770741602E-04
(PID.TID 0000.0001) %MON ke_mean                      =   4.0968188569360E-05
(PID.TID 0000.0001) %MON ke_vol                       =   2.5000000000000E+11
(PID.TID 0000.0001) %MON vort_r_min                   =  -1.0143994157918E-05
(PID.TID 0000.0001) %MON vort_r_max                   =   1.1684244730798E-05
(PID.TID 0000.0001) %MON vort_a_mean                  =   7.2900000000000E-05
(PID.TID 0000.0001) %MON vort_a_sd                    =   2.9681420383992E-06
(PID.TID 0000.0001) %MON vort_p_mean                  =   7.7363265306122E-05
(PID.TID 0000.0001) %MON vort_p_sd                    =   3.1073212019250E-05
(PID.TID 0000.0001) %MON surfExpan_theta_mean         =   3.0231290235592E-13
(PID.TID 0000.0001) %MON surfExpan_salt_mean          =  -1.7447842129552E-16
(PID.TID 0000.0001) // =======================================================
(PID.TID 0000.0001) // End MONITOR dynamic field statistics
(PID.TID 0000.0001) // =======================================================
 cg2d: Sum(rhs),rhsMax =  -2.84078858527048E-13  7.63170029543739E-04
(PID.TID 0000.0001)                    cg2d_init_res =    8.21053468283190E-02
(PID.TID 0000.0001)                       cg2d_iters =    78
(PID.TID 0000.0001)                         cg2d_res =    6.19074910418526E-12
(PID.TID 0000.0001) // =======================================================
(PID.TID 0000.0001) // Begin MONITOR dynamic field statistics
(PID.TID 0000.0001) // =======================================================
(PID.TID 0000.0001) %MON time_tsnumber                =                    38
(PID.TID 0000.0001) %MON time_secondsf                =   4.5600000000000E+04
(PID.TID 0000.0001) %MON dynstat_eta_max              =   3.9720185499091E-04
(PID.TID 0000.0001) %MON dynstat_eta_min              =  -4.1830369001941E-04
(PID.TID 0000.0001) %MON dynstat_eta_mean             =   1.5299702189608E-17
(PID.TID 0000.0001) %MON dynstat_eta_sd               =   3.7342945369575E-04
(PID.TID 0000.0001) %MON dynstat_eta_del2             =   3.8975241610649E-06
(PID.TID 0000.0001) %MON dynstat_uvel_max             =   3.5910352758676E-02
(PID.TID 0000.0001) %MON dynstat_uvel_min             =  -3.5912474739397E-02
(PID.TID 0000.0001) %MON dynstat_uvel_mean            =  -9.1499787998695E-07
(PID.TID 0000.0001) %MON dynstat_uvel_sd              =   8.9323904463896E-03
(PID.TID 0000.0001) %MON dynstat_uvel_del2            =   2.4805347408589E-04
(PID.TID 0000.0001) %MON dynstat_vvel_max             =   4.9222326431108E-03
(PID.TID 0000.0001) %MON dynstat_vvel_min             =  -4.9201667545461E-03
(PID.TID 0000.0001) %MON dynstat_vvel_mean            =   9.5802732128684E-11
(PID.TID 0000.0001) %MON dynstat_vvel_sd              =   1.1625725299334E-03
(PID.TID 0000.0001) %MON dynstat_vvel_del2            =   1.1670191302111E-04
(PID.TID 0000.0001) %MON dynstat_wvel_max             =   1.9086678127652E-04
(PID.TID 0000.0001) %MON dynstat_wvel_min             =  -1.9097640898956E-04
(PID.TID 0000.0001) %MON dynstat_wvel_mean            =   9.9410896000094E-22
(PID.TID 0000.0001) %MON dynstat_wvel_sd              =   5.4314494535164E-05
(PID.TID 0000.0001) %MON dynstat_wvel_del2            =   7.7019528182154E-06
(PID.TID 0000.0001) %MON dynstat_theta_max            =   1.7020391872703E+01
(PID.TID 0000.0001) %MON dynstat_theta_min            =   1.6979608188987E+01
(PID.TID 0000.0001) %MON dynstat_theta_mean           =   1.6999999916830E+01
(PID.TID 0000.0001) %MON dynstat_theta_sd             =   1.8680681604641E-02
(PID.TID 0000.0001) %MON dynstat_theta_del2           =   1.9600311384655E-04
(PID.TID 0000.0001) %MON dynstat_salt_max             =   1.7020387109310E+01
(PID.TID 0000.0001) %MON dynstat_salt_min             =   1.6979612982851E+01
(PID.TID 0000.0001) %MON dynstat_salt_mean            =   1.7000000005831E+01
(PID.TID 0000.0001) %MON dynstat_salt_sd              =   1.8684409877389E-02
(PID.TID 0000.0001) %MON dynstat_salt_del2            =   1.9141861578388E-04
(PID.TID 0000.0001) %MON advcfl_uvel_max              =   4.3094969687277E-02
(PID.TID 0000.0001) %MON advcfl_vvel_max              =   5.9066791717330E-03
(PID.TID 0000.0001) %MON advcfl_wvel_max              =   4.5834338157494E-02
(PID.TID 0000.0001) %MON advcfl_W_hf_max              =   4.5834338157494E-02
(PID.TID 0000.0001) %MON pe_b_mean                    =   3.4200003826661E-09
(PID.TID 0000.0001) %MON ke_max                       =   6.5336490475740E-04
(PID.TID 0000.0001) %MON ke_mean                      =   4.0542555907917E-05
(PID.TID 0000.0001) %MON ke_vol                       =   2.5000000000000E+11
(PID.TID 0000.0001) %MON vort_r_min                   =  -1.0120605056250E-05
(PID.TID 0000.0001) %MON vort_r_max                   =   1.1656360057495E-05
(PID.TID 0000.0001) %MON vort_a_mean                  =   7.2900000000000E-05
(PID.TID 0000.0001) %MON vort_a_sd                    =   2.9590111829013E-06
(PID.TID 0000.0001) %MON vort_p_mean                  =   7.7363265306123E-05
(PID.TID 0000.0001) %MON vort_p_sd                    =   3.1072287854820E-05
(PID.TID 0000.0001) %MON surfExpan_theta_mean         =   1.8882335784329E-13
(PID.TID 0000.0001) %MON surfExpan_salt_mean          =  -1.9469966163575E-16
(PID.TID 0000.0001) // =======================================================
(PID.TID 0000.0001) // End MONITOR dynamic field statistics
(PID.TID 0000.0001) // =======================================================
 cg2d: Sum(rhs),rhsMax =  -4.69717580803275E-14  7.66043858733996E-04
(PID.TID 0000.0001)                    cg2d_init_res =    6.43658556972572E-02
(PID.TID 0000.0001)                       cg2d_iters =    77
(PID.TID 0000.0001)                         cg2d_res =    9.58885725531879E-12
(PID.TID 0000.0001) // =======================================================
(PID.TID 0000.0001) // Begin MONITOR dynamic field statistics
(PID.TID 0000.0001) // =======================================================
(PID.TID 0000.0001) %MON time_tsnumber                =                    39
(PID.TID 0000.0001) %MON time_secondsf                =   4.6800000000000E+04
(PID.TID 0000.0001) %MON dynstat_eta_max              =   3.9716138097483E-04
(PID.TID 0000.0001) %MON dynstat_eta_min              =  -4.1834419094486E-04
(PID.TID 0000.0001) %MON dynstat_eta_mean             =   7.8357647548266E-18
(PID.TID 0000.0001) %MON dynstat_eta_sd               =   3.7342918985903E-04
(PID.TID 0000.0001) %MON dynstat_eta_del2             =   3.8968599128492E-06
(PID.TID 0000.0001) %MON dynstat_uvel_max             =   3.5650668021233E-02
(PID.TID 0000.0001) %MON dynstat_uvel_min             =  -3.5652691264390E-02
(PID.TID 0000.0001) %MON dynstat_uvel_mean            =  -9.1500719819577E-07
(PID.TID 0000.0001) %MON dynstat_uvel_sd              =   8.8609716125518E-03
(PID.TID 0000.0001) %MON dynstat_uvel_del2            =   2.4675480701804E-04
(PID.TID 0000.0001) %MON dynstat_vvel_max             =   4.1279163081538E-03
(PID.TID 0000.0001) %MON dynstat_vvel_min             =  -4.1238891237838E-03
(PID.TID 0000.0001) %MON dynstat_vvel_mean            =   5.7610941611861E-11
(PID.TID 0000.0001) %MON dynstat_vvel_sd              =   1.2260169965354E-03
(PID.TID 0000.0001) %MON dynstat_vvel_del2            =   1.1564497593689E-04
(PID.TID 0000.0001) %MON dynstat_wvel_max             =   1.7381329772557E-04
(PID.TID 0000.0001) %MON dynstat_wvel_min             =  -1.7392646272338E-04
(PID.TID 0000.0001) %MON dynstat_wvel_mean            =  -1.1244251161391E-22
(PID.TID 0000.0001) %MON dynstat_wvel_sd              =   5.1818232491775E-05
(PID.TID 0000.0001) %MON dynstat_wvel_del2            =   7.5993530428572E-06
(PID.TID 0000.0001) %MON dynstat_theta_max            =   1.7020391872703E+01
(PID.TID 0000.0001) %MON dynstat_theta_min            =   1.6979608188987E+01
(PID.TID 0000.0001) %MON dynstat_theta_mean           =   1.6999999916830E+01
(PID.TID 0000.0001) %MON dynstat_theta_sd             =   1.8680645770539E-02
(PID.TID 0000.0001) %MON dynstat_theta_del2           =   1.9597083314189E-04
(PID.TID 0000.0001) %MON dynstat_salt_max             =   1.7020387109310E+01
(PID.TID 0000.0001) %MON dynstat_salt_min             =   1.6979612982851E+01
(PID.TID 0000.0001) %MON dynstat_salt_mean            =   1.7000000005831E+01
(PID.TID 0000.0001) %MON dynstat_salt_sd              =   1.8684366813191E-02
(PID.TID 0000.0001) %MON dynstat_salt_del2            =   1.9159209830862E-04
(PID.TID 0000.0001) %MON advcfl_uvel_max              =   4.2783229517268E-02
(PID.TID 0000.0001) %MON advcfl_vvel_max              =   4.9534995697846E-03
(PID.TID 0000.0001) %MON advcfl_wvel_max              =   4.1742351053611E-02
(PID.TID 0000.0001) %MON advcfl_W_hf_max              =   4.1742351053611E-02
(PID.TID 0000.0001) %MON pe_b_mean                    =   3.4199955500459E-09
(PID.TID 0000.0001) %MON ke_max                       =   6.3998361186933E-04
(PID.TID 0000.0001) %MON ke_mean                      =   3.9979905862224E-05
(PID.TID 0000.0001) %MON ke_vol                       =   2.5000000000000E+11
(PID.TID 0000.0001) %MON vort_r_min                   =  -1.0077434181792E-05
(PID.TID 0000.0001) %MON vort_r_max                   =   1.1600458815684E-05
(PID.TID 0000.0001) %MON vort_a_mean                  =   7.2900000000000E-05
(PID.TID 0000.0001) %MON vort_a_sd                    =   2.9424402163556E-06
(PID.TID 0000.0001) %MON vort_p_mean                  =   7.7363265306122E-05
(PID.TID 0000.0001) %MON vort_p_sd                    =   3.1070617873880E-05
(PID.TID 0000.0001) %MON surfExpan_theta_mean         =   7.6588180618226E-14
(PID.TID 0000.0001) %MON surfExpan_salt_mean          =  -2.1304334652621E-16
(PID.TID 0000.0001) // =======================================================
(PID.TID 0000.0001) // End MONITOR dynamic field statistics
(PID.TID 0000.0001) // =======================================================
 cg2d: Sum(rhs),rhsMax =  -7.88865500700453E-16  7.68654995757255E-04
(PID.TID 0000.0001)                    cg2d_init_res =    4.92450925021230E-02
(PID.TID 0000.0001)                       cg2d_iters =    77
(PID.TID 0000.0001)                         cg2d_res =    9.00954537066911E-12
(PID.TID 0000.0001) // =======================================================
(PID.TID 0000.0001) // Begin MONITOR dynamic field statistics
(PID.TID 0000.0001) // =======================================================
(PID.TID 0000.0001) %MON time_tsnumber                =                    40
(PID.TID 0000.0001) %MON time_secondsf                =   4.8000000000000E+04
(PID.TID 0000.0001) %MON dynstat_eta_max              =   3.9718501833220E-04
(PID.TID 0000.0001) %MON dynstat_eta_min              =  -4.1832058148448E-04
(PID.TID 0000.0001) %MON dynstat_eta_mean             =   8.2002152307359E-18
(PID.TID 0000.0001) %MON dynstat_eta_sd               =   3.7342613363898E-04
(PID.TID 0000.0001) %MON dynstat_eta_del2             =   3.8958979275428E-06
(PID.TID 0000.0001) %MON dynstat_uvel_max             =   3.5296629742009E-02
(PID.TID 0000.0001) %MON dynstat_uvel_min             =  -3.5298557426568E-02
(PID.TID 0000.0001) %MON dynstat_uvel_mean            =  -9.1501286443180E-07
(PID.TID 0000.0001) %MON dynstat_uvel_sd              =   8.7615630500730E-03
(PID.TID 0000.0001) %MON dynstat_uvel_del2            =   2.4486740206846E-04
(PID.TID 0000.0001) %MON dynstat_vvel_max             =   4.8186364163509E-03
(PID.TID 0000.0001) %MON dynstat_vvel_min             =  -4.8147408509600E-03
(PID.TID 0000.0001) %MON dynstat_vvel_mean            =   1.9991728089091E-11
(PID.TID 0000.0001) %MON dynstat_vvel_sd              =   1.3717349243655E-03
(PID.TID 0000.0001) %MON dynstat_vvel_del2            =   1.1503301390747E-04
(PID.TID 0000.0001) %MON dynstat_wvel_max             =   1.5767421033005E-04
(PID.TID 0000.0001) %MON dynstat_wvel_min             =  -1.5777027573848E-04
(PID.TID 0000.0001) %MON dynstat_wvel_mean            =  -4.3831771003211E-22
(PID.TID 0000.0001) %MON dynstat_wvel_sd              =   5.0023471198490E-05
(PID.TID 0000.0001) %MON dynstat_wvel_del2            =   7.5095597857490E-06
(PID.TID 0000.0001) %MON dynstat_theta_max            =   1.7020391872702E+01
(PID.TID 0000.0001) %MON dynstat_theta_min            =   1.6979608188987E+01
(PID.TID 0000.0001) %MON dynstat_theta_mean           =   1.6999999916830E+01
(PID.TID 0000.0001) %MON dynstat_theta_sd             =   1.8680617251024E-02
(PID.TID 0000.0001) %MON dynstat_theta_del2           =   1.9595231914468E-04
(PID.TID 0000.0001) %MON dynstat_salt_max             =   1.7020387109310E+01
(PID.TID 0000.0001) %MON dynstat_salt_min             =   1.6979612982851E+01
(PID.TID 0000.0001) %MON dynstat_salt_mean            =   1.7000000005831E+01
(PID.TID 0000.0001) %MON dynstat_salt_sd              =   1.8684323632016E-02
(PID.TID 0000.0001) %MON dynstat_salt_del2            =   1.9179370207041E-04
(PID.TID 0000.0001) %MON advcfl_uvel_max              =   4.2358268911882E-02
(PID.TID 0000.0001) %MON advcfl_vvel_max              =   5.7823636996211E-03
(PID.TID 0000.0001) %MON advcfl_wvel_max              =   3.7864866177235E-02
(PID.TID 0000.0001) %MON advcfl_W_hf_max              =   3.7864866177235E-02
(PID.TID 0000.0001) %MON pe_b_mean                    =   3.4199395704037E-09
(PID.TID 0000.0001) %MON ke_max                       =   6.2481702099929E-04
(PID.TID 0000.0001) %MON ke_mean                      =   3.9285689176134E-05
(PID.TID 0000.0001) %MON ke_vol                       =   2.5000000000000E+11
(PID.TID 0000.0001) %MON vort_r_min                   =  -1.0015816601802E-05
(PID.TID 0000.0001) %MON vort_r_max                   =   1.1518494023053E-05
(PID.TID 0000.0001) %MON vort_a_mean                  =   7.2900000000001E-05
(PID.TID 0000.0001) %MON vort_a_sd                    =   2.9188173141975E-06
(PID.TID 0000.0001) %MON vort_p_mean                  =   7.7363265306123E-05
(PID.TID 0000.0001) %MON vort_p_sd                    =   3.1068253291471E-05
(PID.TID 0000.0001) %MON surfExpan_theta_mean         =  -3.1284884656277E-14
(PID.TID 0000.0001) %MON surfExpan_salt_mean          =  -2.2639249328037E-16
(PID.TID 0000.0001) // =======================================================
(PID.TID 0000.0001) // End MONITOR dynamic field statistics
(PID.TID 0000.0001) // =======================================================
 cg2d: Sum(rhs),rhsMax =   7.79384152702067E-15  7.71025788598571E-04
(PID.TID 0000.0001)                    cg2d_init_res =    3.84763677830790E-02
(PID.TID 0000.0001)                       cg2d_iters =    77
(PID.TID 0000.0001)                         cg2d_res =    8.11591155125704E-12
(PID.TID 0000.0001) // =======================================================
(PID.TID 0000.0001) // Begin MONITOR dynamic field statistics
(PID.TID 0000.0001) // =======================================================
(PID.TID 0000.0001) %MON time_tsnumber                =                    41
(PID.TID 0000.0001) %MON time_secondsf                =   4.9200000000000E+04
(PID.TID 0000.0001) %MON dynstat_eta_max              =   3.9726913543502E-04
(PID.TID 0000.0001) %MON dynstat_eta_min              =  -4.1823649377210E-04
(PID.TID 0000.0001) %MON dynstat_eta_mean             =   6.7829504674100E-18
(PID.TID 0000.0001) %MON dynstat_eta_sd               =   3.7342050848773E-04
(PID.TID 0000.0001) %MON dynstat_eta_del2             =   3.8947094132154E-06
(PID.TID 0000.0001) %MON dynstat_uvel_max             =   3.4852735494135E-02
(PID.TID 0000.0001) %MON dynstat_uvel_min             =  -3.4854570900433E-02
(PID.TID 0000.0001) %MON dynstat_uvel_mean            =  -9.1501519936598E-07
(PID.TID 0000.0001) %MON dynstat_uvel_sd              =   8.6353001454136E-03
(PID.TID 0000.0001) %MON dynstat_uvel_del2            =   2.4243471521172E-04
(PID.TID 0000.0001) %MON dynstat_vvel_max             =   5.4899266911422E-03
(PID.TID 0000.0001) %MON dynstat_vvel_min             =  -5.4860253321697E-03
(PID.TID 0000.0001) %MON dynstat_vvel_mean            =  -1.6067697895989E-11
(PID.TID 0000.0001) %MON dynstat_vvel_sd              =   1.5692348620219E-03
(PID.TID 0000.0001) %MON dynstat_vvel_del2            =   1.1478899895997E-04
(PID.TID 0000.0001) %MON dynstat_wvel_max             =   1.4222599961230E-04
(PID.TID 0000.0001) %MON dynstat_wvel_min             =  -1.4231948126040E-04
(PID.TID 0000.0001) %MON dynstat_wvel_mean            =  -1.8582487282427E-23
(PID.TID 0000.0001) %MON dynstat_wvel_sd              =   4.8938990553323E-05
(PID.TID 0000.0001) %MON dynstat_wvel_del2            =   7.4314464799862E-06
(PID.TID 0000.0001) %MON dynstat_theta_max            =   1.7020391872702E+01
(PID.TID 0000.0001) %MON dynstat_theta_min            =   1.6979608188987E+01
(PID.TID 0000.0001) %MON dynstat_theta_mean           =   1.6999999916831E+01
(PID.TID 0000.0001) %MON dynstat_theta_sd             =   1.8680590162409E-02
(PID.TID 0000.0001) %MON dynstat_theta_del2           =   1.9594390524571E-04
(PID.TID 0000.0001) %MON dynstat_salt_max             =   1.7020387109310E+01
(PID.TID 0000.0001) %MON dynstat_salt_min             =   1.6979612982851E+01
(PID.TID 0000.0001) %MON dynstat_salt_mean            =   1.7000000005831E+01
(PID.TID 0000.0001) %MON dynstat_salt_sd              =   1.8684279414064E-02
(PID.TID 0000.0001) %MON dynstat_salt_del2            =   1.9211303824593E-04
(PID.TID 0000.0001) %MON advcfl_uvel_max              =   4.1825485080519E-02
(PID.TID 0000.0001) %MON advcfl_vvel_max              =   6.5879120293706E-03
(PID.TID 0000.0001) %MON advcfl_wvel_max              =   3.4156675502496E-02
(PID.TID 0000.0001) %MON advcfl_W_hf_max              =   3.4156675502496E-02
(PID.TID 0000.0001) %MON pe_b_mean                    =   3.4198365378052E-09
(PID.TID 0000.0001) %MON ke_max                       =   6.0798872673030E-04
(PID.TID 0000.0001) %MON ke_mean                      =   3.8466203784364E-05
(PID.TID 0000.0001) %MON ke_vol                       =   2.5000000000000E+11
(PID.TID 0000.0001) %MON vort_r_min                   =  -9.9371573799095E-06
(PID.TID 0000.0001) %MON vort_r_max                   =   1.1412469340306E-05
(PID.TID 0000.0001) %MON vort_a_mean                  =   7.2899999999999E-05
(PID.TID 0000.0001) %MON vort_a_sd                    =   2.8885733681318E-06
(PID.TID 0000.0001) %MON vort_p_mean                  =   7.7363265306122E-05
(PID.TID 0000.0001) %MON vort_p_sd                    =   3.1065253540067E-05
(PID.TID 0000.0001) %MON surfExpan_theta_mean         =  -1.3237999451271E-13
(PID.TID 0000.0001) %MON surfExpan_salt_mean          =  -2.4874538261091E-16
(PID.TID 0000.0001) // =======================================================
(PID.TID 0000.0001) // End MONITOR dynamic field statistics
(PID.TID 0000.0001) // =======================================================
 cg2d: Sum(rhs),rhsMax =   3.20197969701230E-14  7.73189346087310E-04
(PID.TID 0000.0001)                    cg2d_init_res =    3.45895055010460E-02
(PID.TID 0000.0001)                       cg2d_iters =    77
(PID.TID 0000.0001)                         cg2d_res =    7.86937352682215E-12
(PID.TID 0000.0001) // =======================================================
(PID.TID 0000.0001) // Begin MONITOR dynamic field statistics
(PID.TID 0000.0001) // =======================================================
(PID.TID 0000.0001) %MON time_tsnumber                =                    42
(PID.TID 0000.0001) %MON time_secondsf                =   5.0400000000000E+04
(PID.TID 0000.0001) %MON dynstat_eta_max              =   3.9740898884706E-04
(PID.TID 0000.0001) %MON dynstat_eta_min              =  -4.1809667068230E-04
(PID.TID 0000.0001) %MON dynstat_eta_mean             =   1.5575569253801E-17
(PID.TID 0000.0001) %MON dynstat_eta_sd               =   3.7341262628761E-04
(PID.TID 0000.0001) %MON dynstat_eta_del2             =   3.8933095789732E-06
(PID.TID 0000.0001) %MON dynstat_uvel_max             =   3.4323992278118E-02
(PID.TID 0000.0001) %MON dynstat_uvel_min             =  -3.4325800176931E-02
(PID.TID 0000.0001) %MON dynstat_uvel_mean            =  -9.1501457774626E-07
(PID.TID 0000.0001) %MON dynstat_uvel_sd              =   8.4835145351055E-03
(PID.TID 0000.0001) %MON dynstat_uvel_del2            =   2.3951657082201E-04
(PID.TID 0000.0001) %MON dynstat_vvel_max             =   6.1313670951379E-03
(PID.TID 0000.0001) %MON dynstat_vvel_min             =  -6.1275909096768E-03
(PID.TID 0000.0001) %MON dynstat_vvel_mean            =  -4.9710128391813E-11
(PID.TID 0000.0001) %MON dynstat_vvel_sd              =   1.7932339420485E-03
(PID.TID 0000.0001) %MON dynstat_vvel_del2            =   1.1477775126755E-04
(PID.TID 0000.0001) %MON dynstat_wvel_max             =   1.2778908299883E-04
(PID.TID 0000.0001) %MON dynstat_wvel_min             =  -1.2786569306890E-04
(PID.TID 0000.0001) %MON dynstat_wvel_mean            =  -7.2625861439867E-22
(PID.TID 0000.0001) %MON dynstat_wvel_sd              =   4.8528040814892E-05
(PID.TID 0000.0001) %MON dynstat_wvel_del2            =   7.3636540158575E-06
(PID.TID 0000.0001) %MON dynstat_theta_max            =   1.7020391872702E+01
(PID.TID 0000.0001) %MON dynstat_theta_min            =   1.6979608188987E+01
(PID.TID 0000.0001) %MON dynstat_theta_mean           =   1.6999999916832E+01
(PID.TID 0000.0001) %MON dynstat_theta_sd             =   1.8680560227626E-02
(PID.TID 0000.0001) %MON dynstat_theta_del2           =   1.9594307157103E-04
(PID.TID 0000.0001) %MON dynstat_salt_max             =   1.7020387109310E+01
(PID.TID 0000.0001) %MON dynstat_salt_min             =   1.6979612982851E+01
(PID.TID 0000.0001) %MON dynstat_salt_mean            =   1.7000000005831E+01
(PID.TID 0000.0001) %MON dynstat_salt_sd              =   1.8684236153188E-02
(PID.TID 0000.0001) %MON dynstat_salt_del2            =   1.9237520526291E-04
(PID.TID 0000.0001) %MON advcfl_uvel_max              =   4.1190960212317E-02
(PID.TID 0000.0001) %MON advcfl_vvel_max              =   7.3576405141655E-03
(PID.TID 0000.0001) %MON advcfl_wvel_max              =   3.0687766336537E-02
(PID.TID 0000.0001) %MON advcfl_W_hf_max              =   3.0687766336537E-02
(PID.TID 0000.0001) %MON pe_b_mean                    =   3.4196921667766E-09
(PID.TID 0000.0001) %MON ke_max                       =   5.8962936055933E-04
(PID.TID 0000.0001) %MON ke_mean                      =   3.7528540078338E-05
(PID.TID 0000.0001) %MON ke_vol                       =   2.5000000000000E+11
(PID.TID 0000.0001) %MON vort_r_min                   =  -9.8429182055484E-06
(PID.TID 0000.0001) %MON vort_r_max                   =   1.1284416455094E-05
(PID.TID 0000.0001) %MON vort_a_mean                  =   7.2900000000000E-05
(PID.TID 0000.0001) %MON vort_a_sd                    =   2.8521781761431E-06
(PID.TID 0000.0001) %MON vort_p_mean                  =   7.7363265306122E-05
(PID.TID 0000.0001) %MON vort_p_sd                    =   3.1061684738456E-05
(PID.TID 0000.0001) %MON surfExpan_theta_mean         =  -2.2489432985041E-13
(PID.TID 0000.0001) %MON surfExpan_salt_mean          =  -2.5356169608503E-16
(PID.TID 0000.0001) // =======================================================
(PID.TID 0000.0001) // End MONITOR dynamic field statistics
(PID.TID 0000.0001) // =======================================================
 cg2d: Sum(rhs),rhsMax =  -1.40969809610259E-13  7.75163590984252E-04
(PID.TID 0000.0001)                    cg2d_init_res =    3.76296302078331E-02
(PID.TID 0000.0001)                       cg2d_iters =    77
(PID.TID 0000.0001)                         cg2d_res =    8.03091350215152E-12
(PID.TID 0000.0001) // =======================================================
(PID.TID 0000.0001) // Begin MONITOR dynamic field statistics
(PID.TID 0000.0001) // =======================================================
(PID.TID 0000.0001) %MON time_tsnumber                =                    43
(PID.TID 0000.0001) %MON time_secondsf                =   5.1600000000000E+04
(PID.TID 0000.0001) %MON dynstat_eta_max              =   3.9759893051915E-04
(PID.TID 0000.0001) %MON dynstat_eta_min              =  -4.1790675958816E-04
(PID.TID 0000.0001) %MON dynstat_eta_mean             =   8.9374673650777E-18
(PID.TID 0000.0001) %MON dynstat_eta_sd               =   3.7340291597849E-04
(PID.TID 0000.0001) %MON dynstat_eta_del2             =   3.8917187802292E-06
(PID.TID 0000.0001) %MON dynstat_uvel_max             =   3.3715874582941E-02
(PID.TID 0000.0001) %MON dynstat_uvel_min             =  -3.3717693186932E-02
(PID.TID 0000.0001) %MON dynstat_uvel_mean            =  -9.1501142859068E-07
(PID.TID 0000.0001) %MON dynstat_uvel_sd              =   8.3077242614805E-03
(PID.TID 0000.0001) %MON dynstat_uvel_del2            =   2.3616969466283E-04
(PID.TID 0000.0001) %MON dynstat_vvel_max             =   6.7373643190636E-03
(PID.TID 0000.0001) %MON dynstat_vvel_min             =  -6.7337081507017E-03
(PID.TID 0000.0001) %MON dynstat_vvel_mean            =  -8.0409506671684E-11
(PID.TID 0000.0001) %MON dynstat_vvel_sd              =   2.0265854285207E-03
(PID.TID 0000.0001) %MON dynstat_vvel_del2            =   1.1502845925454E-04
(PID.TID 0000.0001) %MON dynstat_wvel_max             =   1.1855826698319E-04
(PID.TID 0000.0001) %MON dynstat_wvel_min             =  -1.1863268711119E-04
(PID.TID 0000.0001) %MON dynstat_wvel_mean            =   1.4775279437543E-21
(PID.TID 0000.0001) %MON dynstat_wvel_sd              =   4.8711861897366E-05
(PID.TID 0000.0001) %MON dynstat_wvel_del2            =   7.3048771994834E-06
(PID.TID 0000.0001) %MON dynstat_theta_max            =   1.7020391872702E+01
(PID.TID 0000.0001) %MON dynstat_theta_min            =   1.6979608188987E+01
(PID.TID 0000.0001) %MON dynstat_theta_mean           =   1.6999999916834E+01
(PID.TID 0000.0001) %MON dynstat_theta_sd             =   1.8680525675689E-02
(PID.TID 0000.0001) %MON dynstat_theta_del2           =   1.9594687164438E-04
(PID.TID 0000.0001) %MON dynstat_salt_max             =   1.7020387109310E+01
(PID.TID 0000.0001) %MON dynstat_salt_min             =   1.6979612982850E+01
(PID.TID 0000.0001) %MON dynstat_salt_mean            =   1.7000000005831E+01
(PID.TID 0000.0001) %MON dynstat_salt_sd              =   1.8684192742418E-02
(PID.TID 0000.0001) %MON dynstat_salt_del2            =   1.9261482218531E-04
(PID.TID 0000.0001) %MON advcfl_uvel_max              =   4.0461231824319E-02
(PID.TID 0000.0001) %MON advcfl_vvel_max              =   8.0848371828763E-03
(PID.TID 0000.0001) %MON advcfl_wvel_max              =   2.8471844906686E-02
(PID.TID 0000.0001) %MON advcfl_W_hf_max              =   2.8471844906686E-02
(PID.TID 0000.0001) %MON pe_b_mean                    =   3.4195143161418E-09
(PID.TID 0000.0001) %MON ke_max                       =   5.6987959472888E-04
(PID.TID 0000.0001) %MON ke_mean                      =   3.6480524900584E-05
(PID.TID 0000.0001) %MON ke_vol                       =   2.5000000000000E+11
(PID.TID 0000.0001) %MON vort_r_min                   =  -9.7346037312210E-06
(PID.TID 0000.0001) %MON vort_r_max                   =   1.1136378625880E-05
(PID.TID 0000.0001) %MON vort_a_mean                  =   7.2899999999999E-05
(PID.TID 0000.0001) %MON vort_a_sd                    =   2.8101364997280E-06
(PID.TID 0000.0001) %MON vort_p_mean                  =   7.7363265306122E-05
(PID.TID 0000.0001) %MON vort_p_sd                    =   3.1057618106112E-05
(PID.TID 0000.0001) %MON surfExpan_theta_mean         =  -3.0659780038278E-13
(PID.TID 0000.0001) %MON surfExpan_salt_mean          =  -3.3834771809469E-16
(PID.TID 0000.0001) // =======================================================
(PID.TID 0000.0001) // End MONITOR dynamic field statistics
(PID.TID 0000.0001) // =======================================================
 cg2d: Sum(rhs),rhsMax =  -1.18864228355886E-13  7.76992338374621E-04
(PID.TID 0000.0001)                    cg2d_init_res =    4.47555092897154E-02
(PID.TID 0000.0001)                       cg2d_iters =    77
(PID.TID 0000.0001)                         cg2d_res =    6.86115852997120E-12
(PID.TID 0000.0001) // =======================================================
(PID.TID 0000.0001) // Begin MONITOR dynamic field statistics
(PID.TID 0000.0001) // =======================================================
(PID.TID 0000.0001) %MON time_tsnumber                =                    44
(PID.TID 0000.0001) %MON time_secondsf                =   5.2800000000000E+04
(PID.TID 0000.0001) %MON dynstat_eta_max              =   3.9783250060580E-04
(PID.TID 0000.0001) %MON dynstat_eta_min              =  -4.1767321712018E-04
(PID.TID 0000.0001) %MON dynstat_eta_mean             =   8.8117049551473E-18
(PID.TID 0000.0001) %MON dynstat_eta_sd               =   3.7339193449836E-04
(PID.TID 0000.0001) %MON dynstat_eta_del2             =   3.8899443121511E-06
(PID.TID 0000.0001) %MON dynstat_uvel_max             =   3.3034285595985E-02
(PID.TID 0000.0001) %MON dynstat_uvel_min             =  -3.3036110148819E-02
(PID.TID 0000.0001) %MON dynstat_uvel_mean            =  -9.1500623608231E-07
(PID.TID 0000.0001) %MON dynstat_uvel_sd              =   8.1096229972485E-03
(PID.TID 0000.0001) %MON dynstat_uvel_del2            =   2.3241885321829E-04
(PID.TID 0000.0001) %MON dynstat_vvel_max             =   7.3035126197649E-03
(PID.TID 0000.0001) %MON dynstat_vvel_min             =  -7.2999769015096E-03
(PID.TID 0000.0001) %MON dynstat_vvel_mean            =  -1.0865876246334E-10
(PID.TID 0000.0001) %MON dynstat_vvel_sd              =   2.2581650003030E-03
(PID.TID 0000.0001) %MON dynstat_vvel_del2            =   1.1545869499623E-04
(PID.TID 0000.0001) %MON dynstat_wvel_max             =   1.2839155320290E-04
(PID.TID 0000.0001) %MON dynstat_wvel_min             =  -1.2846602490957E-04
(PID.TID 0000.0001) %MON dynstat_wvel_mean            =  -1.5547283090743E-21
(PID.TID 0000.0001) %MON dynstat_wvel_sd              =   4.9381240543407E-05
(PID.TID 0000.0001) %MON dynstat_wvel_del2            =   7.2543948769489E-06
(PID.TID 0000.0001) %MON dynstat_theta_max            =   1.7020391872701E+01
(PID.TID 0000.0001) %MON dynstat_theta_min            =   1.6979608188987E+01
(PID.TID 0000.0001) %MON dynstat_theta_mean           =   1.6999999916837E+01
(PID.TID 0000.0001) %MON dynstat_theta_sd             =   1.8680486338749E-02
(PID.TID 0000.0001) %MON dynstat_theta_del2           =   1.9595444791985E-04
(PID.TID 0000.0001) %MON dynstat_salt_max             =   1.7020387109310E+01
(PID.TID 0000.0001) %MON dynstat_salt_min             =   1.6979612982850E+01
(PID.TID 0000.0001) %MON dynstat_salt_mean            =   1.7000000005831E+01
(PID.TID 0000.0001) %MON dynstat_salt_sd              =   1.8684146972373E-02
(PID.TID 0000.0001) %MON dynstat_salt_del2            =   1.9288326589669E-04
(PID.TID 0000.0001) %MON advcfl_uvel_max              =   3.9643332178583E-02
(PID.TID 0000.0001) %MON advcfl_vvel_max              =   8.7642151437179E-03
(PID.TID 0000.0001) %MON advcfl_wvel_max              =   3.0831845978297E-02
(PID.TID 0000.0001) %MON advcfl_W_hf_max              =   3.0831845978297E-02
(PID.TID 0000.0001) %MON pe_b_mean                    =   3.4193131887552E-09
(PID.TID 0000.0001) %MON ke_max                       =   5.4888655196129E-04
(PID.TID 0000.0001) %MON ke_mean                      =   3.5330661398294E-05
(PID.TID 0000.0001) %MON ke_vol                       =   2.5000000000000E+11
(PID.TID 0000.0001) %MON vort_r_min                   =  -9.6137480548872E-06
(PID.TID 0000.0001) %MON vort_r_max                   =   1.0970396631311E-05
(PID.TID 0000.0001) %MON vort_a_mean                  =   7.2900000000000E-05
(PID.TID 0000.0001) %MON vort_a_sd                    =   2.7629840974018E-06
(PID.TID 0000.0001) %MON vort_p_mean                  =   7.7363265306122E-05
(PID.TID 0000.0001) %MON vort_p_sd                    =   3.1053128371863E-05
(PID.TID 0000.0001) %MON surfExpan_theta_mean         =  -3.7493874108719E-13
(PID.TID 0000.0001) %MON surfExpan_salt_mean          =  -2.5798614591213E-16
(PID.TID 0000.0001) // =======================================================
(PID.TID 0000.0001) // End MONITOR dynamic field statistics
(PID.TID 0000.0001) // =======================================================
 cg2d: Sum(rhs),rhsMax =  -5.52496958773629E-14  7.78705814271659E-04
(PID.TID 0000.0001)                    cg2d_init_res =    5.30593527504851E-02
(PID.TID 0000.0001)                       cg2d_iters =    76
(PID.TID 0000.0001)                         cg2d_res =    8.55748321028638E-12
(PID.TID 0000.0001) // =======================================================
(PID.TID 0000.0001) // Begin MONITOR dynamic field statistics
(PID.TID 0000.0001) // =======================================================
(PID.TID 0000.0001) %MON time_tsnumber                =                    45
(PID.TID 0000.0001) %MON time_secondsf                =   5.4000000000000E+04
(PID.TID 0000.0001) %MON dynstat_eta_max              =   3.9810263047540E-04
(PID.TID 0000.0001) %MON dynstat_eta_min              =  -4.1740311457863E-04
(PID.TID 0000.0001) %MON dynstat_eta_mean             =   5.0779293198078E-18
(PID.TID 0000.0001) %MON dynstat_eta_sd               =   3.7338028053632E-04
(PID.TID 0000.0001) %MON dynstat_eta_del2             =   3.8880273223298E-06
(PID.TID 0000.0001) %MON dynstat_uvel_max             =   3.2285513919440E-02
(PID.TID 0000.0001) %MON dynstat_uvel_min             =  -3.2287339213499E-02
(PID.TID 0000.0001) %MON dynstat_uvel_mean            =  -9.1499962508189E-07
(PID.TID 0000.0001) %MON dynstat_uvel_sd              =   7.8910683772420E-03
(PID.TID 0000.0001) %MON dynstat_uvel_del2            =   2.2831235586574E-04
(PID.TID 0000.0001) %MON dynstat_vvel_max             =   7.8257090742796E-03
(PID.TID 0000.0001) %MON dynstat_vvel_min             =  -7.8223418456595E-03
(PID.TID 0000.0001) %MON dynstat_vvel_mean            =  -1.3410560103229E-10
(PID.TID 0000.0001) %MON dynstat_vvel_sd              =   2.4805848879150E-03
(PID.TID 0000.0001) %MON dynstat_vvel_del2            =   1.1606675112100E-04
(PID.TID 0000.0001) %MON dynstat_wvel_max             =   1.3757297906899E-04
(PID.TID 0000.0001) %MON dynstat_wvel_min             =  -1.3764461484934E-04
(PID.TID 0000.0001) %MON dynstat_wvel_mean            =   4.0642058387476E-22
(PID.TID 0000.0001) %MON dynstat_wvel_sd              =   5.0411833677860E-05
(PID.TID 0000.0001) %MON dynstat_wvel_del2            =   7.2114528014269E-06
(PID.TID 0000.0001) %MON dynstat_theta_max            =   1.7020391872693E+01
(PID.TID 0000.0001) %MON dynstat_theta_min            =   1.6979608188987E+01
(PID.TID 0000.0001) %MON dynstat_theta_mean           =   1.6999999916839E+01
(PID.TID 0000.0001) %MON dynstat_theta_sd             =   1.8680442524934E-02
(PID.TID 0000.0001) %MON dynstat_theta_del2           =   1.9596552111840E-04
(PID.TID 0000.0001) %MON dynstat_salt_max             =   1.7020387109310E+01
(PID.TID 0000.0001) %MON dynstat_salt_min             =   1.6979612982850E+01
(PID.TID 0000.0001) %MON dynstat_salt_mean            =   1.7000000005832E+01
(PID.TID 0000.0001) %MON dynstat_salt_sd              =   1.8684078547328E-02
(PID.TID 0000.0001) %MON dynstat_salt_del2            =   1.9340054732194E-04
(PID.TID 0000.0001) %MON advcfl_uvel_max              =   3.8744807056199E-02
(PID.TID 0000.0001) %MON advcfl_vvel_max              =   9.3908508891355E-03
(PID.TID 0000.0001) %MON advcfl_wvel_max              =   3.3034707563841E-02
(PID.TID 0000.0001) %MON advcfl_W_hf_max              =   3.3034707563841E-02
(PID.TID 0000.0001) %MON pe_b_mean                    =   3.4190997512352E-09
(PID.TID 0000.0001) %MON ke_max                       =   5.2680319207394E-04
(PID.TID 0000.0001) %MON ke_mean                      =   3.4088065151119E-05
(PID.TID 0000.0001) %MON ke_vol                       =   2.5000000000000E+11
(PID.TID 0000.0001) %MON vort_r_min                   =  -9.4819010471695E-06
(PID.TID 0000.0001) %MON vort_r_max                   =   1.0788498760840E-05
(PID.TID 0000.0001) %MON vort_a_mean                  =   7.2900000000000E-05
(PID.TID 0000.0001) %MON vort_a_sd                    =   2.7112836365945E-06
(PID.TID 0000.0001) %MON vort_p_mean                  =   7.7363265306123E-05
(PID.TID 0000.0001) %MON vort_p_sd                    =   3.1048292203594E-05
(PID.TID 0000.0001) %MON surfExpan_theta_mean         =  -4.2868417995006E-13
(PID.TID 0000.0001) %MON surfExpan_salt_mean          =  -9.9803188874752E-17
(PID.TID 0000.0001) // =======================================================
(PID.TID 0000.0001) // End MONITOR dynamic field statistics
(PID.TID 0000.0001) // =======================================================
 cg2d: Sum(rhs),rhsMax =  -3.00049156527760E-14  7.80320705099754E-04
(PID.TID 0000.0001)                    cg2d_init_res =    6.11718928823131E-02
(PID.TID 0000.0001)                       cg2d_iters =    79
(PID.TID 0000.0001)                         cg2d_res =    6.81952236462717E-12
(PID.TID 0000.0001) // =======================================================
(PID.TID 0000.0001) // Begin MONITOR dynamic field statistics
(PID.TID 0000.0001) // =======================================================
(PID.TID 0000.0001) %MON time_tsnumber                =                    46
(PID.TID 0000.0001) %MON time_secondsf                =   5.5200000000000E+04
(PID.TID 0000.0001) %MON dynstat_eta_max              =   3.9840127982443E-04
(PID.TID 0000.0001) %MON dynstat_eta_min              =  -4.1710449252259E-04
(PID.TID 0000.0001) %MON dynstat_eta_mean             =   7.8229543215569E-18
(PID.TID 0000.0001) %MON dynstat_eta_sd               =   3.7336854991482E-04
(PID.TID 0000.0001) %MON dynstat_eta_del2             =   3.8860234239829E-06
(PID.TID 0000.0001) %MON dynstat_uvel_max             =   3.1476190306201E-02
(PID.TID 0000.0001) %MON dynstat_uvel_min             =  -3.1478011083791E-02
(PID.TID 0000.0001) %MON dynstat_uvel_mean            =  -9.1499218337441E-07
(PID.TID 0000.0001) %MON dynstat_uvel_sd              =   7.6540694868772E-03
(PID.TID 0000.0001) %MON dynstat_uvel_del2            =   2.2390667778179E-04
(PID.TID 0000.0001) %MON dynstat_vvel_max             =   8.3001851778786E-03
(PID.TID 0000.0001) %MON dynstat_vvel_min             =  -8.2969739867322E-03
(PID.TID 0000.0001) %MON dynstat_vvel_mean            =  -1.5682114651950E-10
(PID.TID 0000.0001) %MON dynstat_vvel_sd              =   2.6887128631624E-03
(PID.TID 0000.0001) %MON dynstat_vvel_del2            =   1.1672387205397E-04
(PID.TID 0000.0001) %MON dynstat_wvel_max             =   1.4601478406315E-04
(PID.TID 0000.0001) %MON dynstat_wvel_min             =  -1.4608571808791E-04
(PID.TID 0000.0001) %MON dynstat_wvel_mean            =  -1.6592975733435E-21
(PID.TID 0000.0001) %MON dynstat_wvel_sd              =   5.1678297372086E-05
(PID.TID 0000.0001) %MON dynstat_wvel_del2            =   7.1754302662982E-06
(PID.TID 0000.0001) %MON dynstat_theta_max            =   1.7020391872691E+01
(PID.TID 0000.0001) %MON dynstat_theta_min            =   1.6979608188987E+01
(PID.TID 0000.0001) %MON dynstat_theta_mean           =   1.6999999916842E+01
(PID.TID 0000.0001) %MON dynstat_theta_sd             =   1.8680394619330E-02
(PID.TID 0000.0001) %MON dynstat_theta_del2           =   1.9597960704311E-04
(PID.TID 0000.0001) %MON dynstat_salt_max             =   1.7020387109310E+01
(PID.TID 0000.0001) %MON dynstat_salt_min             =   1.6979612982850E+01
(PID.TID 0000.0001) %MON dynstat_salt_mean            =   1.7000000005832E+01
(PID.TID 0000.0001) %MON dynstat_salt_sd              =   1.8684018802472E-02
(PID.TID 0000.0001) %MON dynstat_salt_del2            =   1.9367297124013E-04
(PID.TID 0000.0001) %MON advcfl_uvel_max              =   3.7773613300549E-02
(PID.TID 0000.0001) %MON advcfl_vvel_max              =   9.9602222134543E-03
(PID.TID 0000.0001) %MON advcfl_wvel_max              =   3.5060572341098E-02
(PID.TID 0000.0001) %MON advcfl_W_hf_max              =   3.5060572341098E-02
(PID.TID 0000.0001) %MON pe_b_mean                    =   3.4188849164562E-09
(PID.TID 0000.0001) %MON ke_max                       =   5.0378765364367E-04
(PID.TID 0000.0001) %MON ke_mean                      =   3.2762395166635E-05
(PID.TID 0000.0001) %MON ke_vol                       =   2.5000000000000E+11
(PID.TID 0000.0001) %MON vort_r_min                   =  -9.3406145568410E-06
(PID.TID 0000.0001) %MON vort_r_max                   =   1.0592692340012E-05
(PID.TID 0000.0001) %MON vort_a_mean                  =   7.2900000000001E-05
(PID.TID 0000.0001) %MON vort_a_sd                    =   2.6556204277892E-06
(PID.TID 0000.0001) %MON vort_p_mean                  =   7.7363265306123E-05
(PID.TID 0000.0001) %MON vort_p_sd                    =   3.1043186688703E-05
(PID.TID 0000.0001) %MON surfExpan_theta_mean         =  -4.6751044969039E-13
(PID.TID 0000.0001) %MON surfExpan_salt_mean          =  -5.2654842676108E-16
(PID.TID 0000.0001) // =======================================================
(PID.TID 0000.0001) // End MONITOR dynamic field statistics
(PID.TID 0000.0001) // =======================================================
 cg2d: Sum(rhs),rhsMax =  -3.49520217456101E-14  7.81847740180702E-04
(PID.TID 0000.0001)                    cg2d_init_res =    6.82517495649778E-02
(PID.TID 0000.0001)                       cg2d_iters =    77
(PID.TID 0000.0001)                         cg2d_res =    8.73499753481599E-12
(PID.TID 0000.0001) // =======================================================
(PID.TID 0000.0001) // Begin MONITOR dynamic field statistics
(PID.TID 0000.0001) // =======================================================
(PID.TID 0000.0001) %MON time_tsnumber                =                    47
(PID.TID 0000.0001) %MON time_secondsf                =   5.6400000000000E+04
(PID.TID 0000.0001) %MON dynstat_eta_max              =   3.9872135944674E-04
(PID.TID 0000.0001) %MON dynstat_eta_min              =  -4.1678443616725E-04
(PID.TID 0000.0001) %MON dynstat_eta_mean             =  -5.0709277399363E-18
(PID.TID 0000.0001) %MON dynstat_eta_sd               =   3.7335729377013E-04
(PID.TID 0000.0001) %MON dynstat_eta_del2             =   3.8839805544372E-06
(PID.TID 0000.0001) %MON dynstat_uvel_max             =   3.0613243155158E-02
(PID.TID 0000.0001) %MON dynstat_uvel_min             =  -3.0615053757037E-02
(PID.TID 0000.0001) %MON dynstat_uvel_mean            =  -9.1498448190164E-07
(PID.TID 0000.0001) %MON dynstat_uvel_sd              =   7.4007736040856E-03
(PID.TID 0000.0001) %MON dynstat_uvel_del2            =   2.1926166328528E-04
(PID.TID 0000.0001) %MON dynstat_vvel_max             =   8.7235335621448E-03
(PID.TID 0000.0001) %MON dynstat_vvel_min             =  -8.7204656523801E-03
(PID.TID 0000.0001) %MON dynstat_vvel_mean            =  -1.7621610526028E-10
(PID.TID 0000.0001) %MON dynstat_vvel_sd              =   2.8788246501916E-03
(PID.TID 0000.0001) %MON dynstat_vvel_del2            =   1.1737541220600E-04
(PID.TID 0000.0001) %MON dynstat_wvel_max             =   1.5364668030494E-04
(PID.TID 0000.0001) %MON dynstat_wvel_min             =  -1.5371857434997E-04
(PID.TID 0000.0001) %MON dynstat_wvel_mean            =  -4.8444853586101E-22
(PID.TID 0000.0001) %MON dynstat_wvel_sd              =   5.3064570498387E-05
(PID.TID 0000.0001) %MON dynstat_wvel_del2            =   7.1456501217175E-06
(PID.TID 0000.0001) %MON dynstat_theta_max            =   1.7020391872689E+01
(PID.TID 0000.0001) %MON dynstat_theta_min            =   1.6979608188987E+01
(PID.TID 0000.0001) %MON dynstat_theta_mean           =   1.6999999916845E+01
(PID.TID 0000.0001) %MON dynstat_theta_sd             =   1.8680343026012E-02
(PID.TID 0000.0001) %MON dynstat_theta_del2           =   1.9599610938982E-04
(PID.TID 0000.0001) %MON dynstat_salt_max             =   1.7020387109310E+01
(PID.TID 0000.0001) %MON dynstat_salt_min             =   1.6979612982850E+01
(PID.TID 0000.0001) %MON dynstat_salt_mean            =   1.7000000005831E+01
(PID.TID 0000.0001) %MON dynstat_salt_sd              =   1.8683966562714E-02
(PID.TID 0000.0001) %MON dynstat_salt_del2            =   1.9402839559263E-04
(PID.TID 0000.0001) %MON advcfl_uvel_max              =   3.6738064508445E-02
(PID.TID 0000.0001) %MON advcfl_vvel_max              =   1.0468240274574E-02
(PID.TID 0000.0001) %MON advcfl_wvel_max              =   3.6892457843993E-02
(PID.TID 0000.0001) %MON advcfl_W_hf_max              =   3.6892457843993E-02
(PID.TID 0000.0001) %MON pe_b_mean                    =   3.4186787775985E-09
(PID.TID 0000.0001) %MON ke_max                       =   4.8000249759510E-04
(PID.TID 0000.0001) %MON ke_mean                      =   3.1363788444007E-05
(PID.TID 0000.0001) %MON ke_vol                       =   2.5000000000000E+11
(PID.TID 0000.0001) %MON vort_r_min                   =  -9.1914364605610E-06
(PID.TID 0000.0001) %MON vort_r_max                   =   1.0384960080562E-05
(PID.TID 0000.0001) %MON vort_a_mean                  =   7.2900000000000E-05
(PID.TID 0000.0001) %MON vort_a_sd                    =   2.5965979311061E-06
(PID.TID 0000.0001) %MON vort_p_mean                  =   7.7363265306123E-05
(PID.TID 0000.0001) %MON vort_p_sd                    =   3.1037887893531E-05
(PID.TID 0000.0001) %MON surfExpan_theta_mean         =  -4.9131325257667E-13
(PID.TID 0000.0001) %MON surfExpan_salt_mean          =  -5.7786424274671E-17
(PID.TID 0000.0001) // =======================================================
(PID.TID 0000.0001) // End MONITOR dynamic field statistics
(PID.TID 0000.0001) // =======================================================
 cg2d: Sum(rhs),rhsMax =   5.27274621534013E-15  7.83290822604421E-04
(PID.TID 0000.0001)                    cg2d_init_res =    7.42053595632041E-02
(PID.TID 0000.0001)                       cg2d_iters =    76
(PID.TID 0000.0001)                         cg2d_res =    8.49396975969859E-12
(PID.TID 0000.0001) // =======================================================
(PID.TID 0000.0001) // Begin MONITOR dynamic field statistics
(PID.TID 0000.0001) // =======================================================
(PID.TID 0000.0001) %MON time_tsnumber                =                    48
(PID.TID 0000.0001) %MON time_secondsf                =   5.7600000000000E+04
(PID.TID 0000.0001) %MON dynstat_eta_max              =   3.9905535458748E-04
(PID.TID 0000.0001) %MON dynstat_eta_min              =  -4.1645046526065E-04
(PID.TID 0000.0001) %MON dynstat_eta_mean             =  -2.1523810750379E-18
(PID.TID 0000.0001) %MON dynstat_eta_sd               =   3.7334698873894E-04
(PID.TID 0000.0001) %MON dynstat_eta_del2             =   3.8819393221688E-06
(PID.TID 0000.0001) %MON dynstat_uvel_max             =   2.9703850767513E-02
(PID.TID 0000.0001) %MON dynstat_uvel_min             =  -2.9705645498871E-02
(PID.TID 0000.0001) %MON dynstat_uvel_mean            =  -9.1497702959827E-07
(PID.TID 0000.0001) %MON dynstat_uvel_sd              =   7.1334521037609E-03
(PID.TID 0000.0001) %MON dynstat_uvel_del2            =   2.1445614183443E-04
(PID.TID 0000.0001) %MON dynstat_vvel_max             =   9.0927372226517E-03
(PID.TID 0000.0001) %MON dynstat_vvel_min             =  -9.0897999854646E-03
(PID.TID 0000.0001) %MON dynstat_vvel_mean            =  -1.9226049157811E-10
(PID.TID 0000.0001) %MON dynstat_vvel_sd              =   3.0481264447701E-03
(PID.TID 0000.0001) %MON dynstat_vvel_del2            =   1.1808261938259E-04
(PID.TID 0000.0001) %MON dynstat_wvel_max             =   1.6041920851306E-04
(PID.TID 0000.0001) %MON dynstat_wvel_min             =  -1.6049069253743E-04
(PID.TID 0000.0001) %MON dynstat_wvel_mean            =   2.6960311358195E-22
(PID.TID 0000.0001) %MON dynstat_wvel_sd              =   5.4469262570660E-05
(PID.TID 0000.0001) %MON dynstat_wvel_del2            =   7.1215255896212E-06
(PID.TID 0000.0001) %MON dynstat_theta_max            =   1.7020391872687E+01
(PID.TID 0000.0001) %MON dynstat_theta_min            =   1.6979608188987E+01
(PID.TID 0000.0001) %MON dynstat_theta_mean           =   1.6999999916848E+01
(PID.TID 0000.0001) %MON dynstat_theta_sd             =   1.8680288137009E-02
(PID.TID 0000.0001) %MON dynstat_theta_del2           =   1.9601439940822E-04
(PID.TID 0000.0001) %MON dynstat_salt_max             =   1.7020387109310E+01
(PID.TID 0000.0001) %MON dynstat_salt_min             =   1.6979612982850E+01
(PID.TID 0000.0001) %MON dynstat_salt_mean            =   1.7000000005832E+01
(PID.TID 0000.0001) %MON dynstat_salt_sd              =   1.8683904396118E-02
(PID.TID 0000.0001) %MON dynstat_salt_del2            =   1.9446681018430E-04
(PID.TID 0000.0001) %MON advcfl_uvel_max              =   3.5646774598645E-02
(PID.TID 0000.0001) %MON advcfl_vvel_max              =   1.0911284667182E-02
(PID.TID 0000.0001) %MON advcfl_wvel_max              =   3.8517766208983E-02
(PID.TID 0000.0001) %MON advcfl_W_hf_max              =   3.8517766208983E-02
(PID.TID 0000.0001) %MON pe_b_mean                    =   3.4184900623607E-09
(PID.TID 0000.0001) %MON ke_max                       =   4.5561387324929E-04
(PID.TID 0000.0001) %MON ke_mean                      =   2.9902785792103E-05
(PID.TID 0000.0001) %MON ke_vol                       =   2.5000000000000E+11
(PID.TID 0000.0001) %MON vort_r_min                   =  -9.0359092022474E-06
(PID.TID 0000.0001) %MON vort_r_max                   =   1.0167251973430E-05
(PID.TID 0000.0001) %MON vort_a_mean                  =   7.2900000000000E-05
(PID.TID 0000.0001) %MON vort_a_sd                    =   2.5348331009057E-06
(PID.TID 0000.0001) %MON vort_p_mean                  =   7.7363265306123E-05
(PID.TID 0000.0001) %MON vort_p_sd                    =   3.1032469538934E-05
(PID.TID 0000.0001) %MON surfExpan_theta_mean         =  -5.0094644690063E-13
(PID.TID 0000.0001) %MON surfExpan_salt_mean          =  -2.2183353117070E-16
(PID.TID 0000.0001) // =======================================================
(PID.TID 0000.0001) // End MONITOR dynamic field statistics
(PID.TID 0000.0001) // =======================================================
 cg2d: Sum(rhs),rhsMax =  -8.92406266071732E-14  7.84648851397067E-04
(PID.TID 0000.0001)                    cg2d_init_res =    7.90640862597433E-02
(PID.TID 0000.0001)                       cg2d_iters =    79
(PID.TID 0000.0001)                         cg2d_res =    7.40080960482051E-12
(PID.TID 0000.0001) // =======================================================
(PID.TID 0000.0001) // Begin MONITOR dynamic field statistics
(PID.TID 0000.0001) // =======================================================
(PID.TID 0000.0001) %MON time_tsnumber                =                    49
(PID.TID 0000.0001) %MON time_secondsf                =   5.8800000000000E+04
(PID.TID 0000.0001) %MON dynstat_eta_max              =   3.9939539232109E-04
(PID.TID 0000.0001) %MON dynstat_eta_min              =  -4.1611044615708E-04
(PID.TID 0000.0001) %MON dynstat_eta_mean             =   1.2858256051573E-17
(PID.TID 0000.0001) %MON dynstat_eta_sd               =   3.7333805331385E-04
(PID.TID 0000.0001) %MON dynstat_eta_del2             =   3.8799329555833E-06
(PID.TID 0000.0001) %MON dynstat_uvel_max             =   2.8755392963168E-02
(PID.TID 0000.0001) %MON dynstat_uvel_min             =  -2.8757166348788E-02
(PID.TID 0000.0001) %MON dynstat_uvel_mean            =  -9.1497025860727E-07
(PID.TID 0000.0001) %MON dynstat_uvel_sd              =   6.8544857139117E-03
(PID.TID 0000.0001) %MON dynstat_uvel_del2            =   2.0957579522783E-04
(PID.TID 0000.0001) %MON dynstat_vvel_max             =   9.4051908022728E-03
(PID.TID 0000.0001) %MON dynstat_vvel_min             =  -9.4023710998156E-03
(PID.TID 0000.0001) %MON dynstat_vvel_mean            =  -2.0570644631064E-10
(PID.TID 0000.0001) %MON dynstat_vvel_sd              =   3.1944843728100E-03
(PID.TID 0000.0001) %MON dynstat_vvel_del2            =   1.1875594285846E-04
(PID.TID 0000.0001) %MON dynstat_wvel_max             =   1.6628243348155E-04
(PID.TID 0000.0001) %MON dynstat_wvel_min             =  -1.6635279400540E-04
(PID.TID 0000.0001) %MON dynstat_wvel_mean            =   1.1327308642022E-21
(PID.TID 0000.0001) %MON dynstat_wvel_sd              =   5.5807655332788E-05
(PID.TID 0000.0001) %MON dynstat_wvel_del2            =   7.1024100929630E-06
(PID.TID 0000.0001) %MON dynstat_theta_max            =   1.7020391872686E+01
(PID.TID 0000.0001) %MON dynstat_theta_min            =   1.6979608188987E+01
(PID.TID 0000.0001) %MON dynstat_theta_mean           =   1.6999999916851E+01
(PID.TID 0000.0001) %MON dynstat_theta_sd             =   1.8680230274120E-02
(PID.TID 0000.0001) %MON dynstat_theta_del2           =   1.9603380707033E-04
(PID.TID 0000.0001) %MON dynstat_salt_max             =   1.7020387109310E+01
(PID.TID 0000.0001) %MON dynstat_salt_min             =   1.6979612982850E+01
(PID.TID 0000.0001) %MON dynstat_salt_mean            =   1.7000000005832E+01
(PID.TID 0000.0001) %MON dynstat_salt_sd              =   1.8683696335332E-02
(PID.TID 0000.0001) %MON dynstat_salt_del2            =   1.9491401586396E-04
(PID.TID 0000.0001) %MON advcfl_uvel_max              =   3.4508599618546E-02
(PID.TID 0000.0001) %MON advcfl_vvel_max              =   1.1286228962727E-02
(PID.TID 0000.0001) %MON advcfl_wvel_max              =   3.9924670561296E-02
(PID.TID 0000.0001) %MON advcfl_W_hf_max              =   3.9924670561296E-02
(PID.TID 0000.0001) %MON pe_b_mean                    =   3.4183264328296E-09
(PID.TID 0000.0001) %MON ke_max                       =   4.3079060340509E-04
(PID.TID 0000.0001) %MON ke_mean                      =   2.8390258215596E-05
(PID.TID 0000.0001) %MON ke_vol                       =   2.5000000000000E+11
(PID.TID 0000.0001) %MON vort_r_min                   =  -8.8754829743692E-06
(PID.TID 0000.0001) %MON vort_r_max                   =   9.9414853910101E-06
(PID.TID 0000.0001) %MON vort_a_mean                  =   7.2900000000001E-05
(PID.TID 0000.0001) %MON vort_a_sd                    =   2.4709513778718E-06
(PID.TID 0000.0001) %MON vort_p_mean                  =   7.7363265306123E-05
(PID.TID 0000.0001) %MON vort_p_sd                    =   3.1027001799598E-05
(PID.TID 0000.0001) %MON surfExpan_theta_mean         =  -4.9718062386986E-13
(PID.TID 0000.0001) %MON surfExpan_salt_mean          =   1.8024929398522E-16
(PID.TID 0000.0001) // =======================================================
(PID.TID 0000.0001) // End MONITOR dynamic field statistics
(PID.TID 0000.0001) // =======================================================
 cg2d: Sum(rhs),rhsMax =  -1.05441209149321E-13  7.85916238860910E-04
(PID.TID 0000.0001)                    cg2d_init_res =    8.45991560042521E-02
(PID.TID 0000.0001)                       cg2d_iters =    80
(PID.TID 0000.0001)                         cg2d_res =    9.39237135275174E-12
(PID.TID 0000.0001) // =======================================================
(PID.TID 0000.0001) // Begin MONITOR dynamic field statistics
(PID.TID 0000.0001) // =======================================================
(PID.TID 0000.0001) %MON time_tsnumber                =                    50
(PID.TID 0000.0001) %MON time_secondsf                =   6.0000000000000E+04
(PID.TID 0000.0001) %MON dynstat_eta_max              =   3.9973107560156E-04
(PID.TID 0000.0001) %MON dynstat_eta_min              =  -4.1577478695682E-04
(PID.TID 0000.0001) %MON dynstat_eta_mean             =   1.6176313302196E-17
(PID.TID 0000.0001) %MON dynstat_eta_sd               =   3.7333063528233E-04
(PID.TID 0000.0001) %MON dynstat_eta_del2             =   3.8779893222728E-06
(PID.TID 0000.0001) %MON dynstat_uvel_max             =   2.7775401588692E-02
(PID.TID 0000.0001) %MON dynstat_uvel_min             =  -2.7777148425961E-02
(PID.TID 0000.0001) %MON dynstat_uvel_mean            =  -9.1496464232014E-07
(PID.TID 0000.0001) %MON dynstat_uvel_sd              =   6.5663489753828E-03
(PID.TID 0000.0001) %MON dynstat_uvel_del2            =   2.0472635946219E-04
(PID.TID 0000.0001) %MON dynstat_vvel_max             =   9.6587197668459E-03
(PID.TID 0000.0001) %MON dynstat_vvel_min             =  -9.6560047492133E-03
(PID.TID 0000.0001) %MON dynstat_vvel_mean            =  -2.1460053863261E-10
(PID.TID 0000.0001) %MON dynstat_vvel_sd              =   3.3162671730112E-03
(PID.TID 0000.0001) %MON dynstat_vvel_del2            =   1.1934274627030E-04
(PID.TID 0000.0001) %MON dynstat_wvel_max             =   1.7122678670907E-04
(PID.TID 0000.0001) %MON dynstat_wvel_min             =  -1.7129461853016E-04
(PID.TID 0000.0001) %MON dynstat_wvel_mean            =   1.5999431057314E-21
(PID.TID 0000.0001) %MON dynstat_wvel_sd              =   5.7011615536930E-05
(PID.TID 0000.0001) %MON dynstat_wvel_del2            =   7.0876047723569E-06
(PID.TID 0000.0001) %MON dynstat_theta_max            =   1.7020391872684E+01
(PID.TID 0000.0001) %MON dynstat_theta_min            =   1.6979608188987E+01
(PID.TID 0000.0001) %MON dynstat_theta_mean           =   1.6999999916854E+01
(PID.TID 0000.0001) %MON dynstat_theta_sd             =   1.8680170095748E-02
(PID.TID 0000.0001) %MON dynstat_theta_del2           =   1.9605368650134E-04
(PID.TID 0000.0001) %MON dynstat_salt_max             =   1.7020387109310E+01
(PID.TID 0000.0001) %MON dynstat_salt_min             =   1.6979612982850E+01
(PID.TID 0000.0001) %MON dynstat_salt_mean            =   1.7000000005832E+01
(PID.TID 0000.0001) %MON dynstat_salt_sd              =   1.8683608143523E-02
(PID.TID 0000.0001) %MON dynstat_salt_del2            =   1.9545548416718E-04
(PID.TID 0000.0001) %MON advcfl_uvel_max              =   3.3332578111153E-02
(PID.TID 0000.0001) %MON advcfl_vvel_max              =   1.1590463720215E-02
(PID.TID 0000.0001) %MON advcfl_wvel_max              =   4.1110708447239E-02
(PID.TID 0000.0001) %MON advcfl_W_hf_max              =   4.1110708447239E-02
(PID.TID 0000.0001) %MON pe_b_mean                    =   3.4181905934686E-09
(PID.TID 0000.0001) %MON ke_max                       =   4.0570319054391E-04
(PID.TID 0000.0001) %MON ke_mean                      =   2.6837331273975E-05
(PID.TID 0000.0001) %MON ke_vol                       =   2.5000000000000E+11
(PID.TID 0000.0001) %MON vort_r_min                   =  -8.7115961625248E-06
(PID.TID 0000.0001) %MON vort_r_max                   =   9.7095537869288E-06
(PID.TID 0000.0001) %MON vort_a_mean                  =   7.2900000000000E-05
(PID.TID 0000.0001) %MON vort_a_sd                    =   2.4055813781334E-06
(PID.TID 0000.0001) %MON vort_p_mean                  =   7.7363265306123E-05
(PID.TID 0000.0001) %MON vort_p_sd                    =   3.1021550257440E-05
(PID.TID 0000.0001) %MON surfExpan_theta_mean         =  -4.8502994032141E-13
(PID.TID 0000.0001) %MON surfExpan_salt_mean          =  -2.5688305485262E-16
(PID.TID 0000.0001) // =======================================================
(PID.TID 0000.0001) // End MONITOR dynamic field statistics
(PID.TID 0000.0001) // =======================================================
 cg2d: Sum(rhs),rhsMax =   3.22798970713023E-14  7.87083708774875E-04
(PID.TID 0000.0001)                    cg2d_init_res =    8.56419960433435E-02
(PID.TID 0000.0001)                       cg2d_iters =    77
(PID.TID 0000.0001)                         cg2d_res =    8.30811004236213E-12
(PID.TID 0000.0001) // =======================================================
(PID.TID 0000.0001) // Begin MONITOR dynamic field statistics
(PID.TID 0000.0001) // =======================================================
(PID.TID 0000.0001) %MON time_tsnumber                =                    51
(PID.TID 0000.0001) %MON time_secondsf                =   6.1200000000000E+04
(PID.TID 0000.0001) %MON dynstat_eta_max              =   4.0006047983368E-04
(PID.TID 0000.0001) %MON dynstat_eta_min              =  -4.1544539737491E-04
(PID.TID 0000.0001) %MON dynstat_eta_mean             =   2.3526870409629E-17
(PID.TID 0000.0001) %MON dynstat_eta_sd               =   3.7332506613172E-04
(PID.TID 0000.0001) %MON dynstat_eta_del2             =   3.8761334741196E-06
(PID.TID 0000.0001) %MON dynstat_uvel_max             =   2.6771510144408E-02
(PID.TID 0000.0001) %MON dynstat_uvel_min             =  -2.6773225398066E-02
(PID.TID 0000.0001) %MON dynstat_uvel_mean            =  -9.1496017223651E-07
(PID.TID 0000.0001) %MON dynstat_uvel_sd              =   6.2715936843634E-03
(PID.TID 0000.0001) %MON dynstat_uvel_del2            =   2.0011386358466E-04
(PID.TID 0000.0001) %MON dynstat_vvel_max             =   9.8515671224216E-03
(PID.TID 0000.0001) %MON dynstat_vvel_min             =  -9.8489446031038E-03
(PID.TID 0000.0001) %MON dynstat_vvel_mean            =  -2.2140421570435E-10
(PID.TID 0000.0001) %MON dynstat_vvel_sd              =   3.4122506087569E-03
(PID.TID 0000.0001) %MON dynstat_vvel_del2            =   1.1983481410059E-04
(PID.TID 0000.0001) %MON dynstat_wvel_max             =   1.7521414676268E-04
(PID.TID 0000.0001) %MON dynstat_wvel_min             =  -1.7526842371943E-04
(PID.TID 0000.0001) %MON dynstat_wvel_mean            =   3.8783596875636E-22
(PID.TID 0000.0001) %MON dynstat_wvel_sd              =   5.8027568511464E-05
(PID.TID 0000.0001) %MON dynstat_wvel_del2            =   7.0766467778138E-06
(PID.TID 0000.0001) %MON dynstat_theta_max            =   1.7020391872684E+01
(PID.TID 0000.0001) %MON dynstat_theta_min            =   1.6979608188987E+01
(PID.TID 0000.0001) %MON dynstat_theta_mean           =   1.6999999916857E+01
(PID.TID 0000.0001) %MON dynstat_theta_sd             =   1.8680108009755E-02
(PID.TID 0000.0001) %MON dynstat_theta_del2           =   1.9607345807130E-04
(PID.TID 0000.0001) %MON dynstat_salt_max             =   1.7020387109310E+01
(PID.TID 0000.0001) %MON dynstat_salt_min             =   1.6979612982850E+01
(PID.TID 0000.0001) %MON dynstat_salt_mean            =   1.7000000005832E+01
(PID.TID 0000.0001) %MON dynstat_salt_sd              =   1.8683524739916E-02
(PID.TID 0000.0001) %MON dynstat_salt_del2            =   1.9583062677287E-04
(PID.TID 0000.0001) %MON advcfl_uvel_max              =   3.2127870477679E-02
(PID.TID 0000.0001) %MON advcfl_vvel_max              =   1.1821880546906E-02
(PID.TID 0000.0001) %MON advcfl_wvel_max              =   4.2064421692663E-02
(PID.TID 0000.0001) %MON advcfl_W_hf_max              =   4.2064421692663E-02
(PID.TID 0000.0001) %MON pe_b_mean                    =   3.4180886126802E-09
(PID.TID 0000.0001) %MON ke_max                       =   3.8052275771903E-04
(PID.TID 0000.0001) %MON ke_mean                      =   2.5255302113592E-05
(PID.TID 0000.0001) %MON ke_vol                       =   2.5000000000000E+11
(PID.TID 0000.0001) %MON vort_r_min                   =  -8.5456328801983E-06
(PID.TID 0000.0001) %MON vort_r_max                   =   9.4733034031647E-06
(PID.TID 0000.0001) %MON vort_a_mean                  =   7.2900000000000E-05
(PID.TID 0000.0001) %MON vort_a_sd                    =   2.3393491750189E-06
(PID.TID 0000.0001) %MON vort_p_mean                  =   7.7363265306122E-05
(PID.TID 0000.0001) %MON vort_p_sd                    =   3.1016175017512E-05
(PID.TID 0000.0001) %MON surfExpan_theta_mean         =  -4.5905381741827E-13
(PID.TID 0000.0001) %MON surfExpan_salt_mean          =  -1.2856306115161E-16
(PID.TID 0000.0001) // =======================================================
(PID.TID 0000.0001) // End MONITOR dynamic field statistics
(PID.TID 0000.0001) // =======================================================
 cg2d: Sum(rhs),rhsMax =  -1.24211838731236E-13  7.88080868961756E-04
(PID.TID 0000.0001)                    cg2d_init_res =    8.68494434272283E-02
(PID.TID 0000.0001)                       cg2d_iters =    78
(PID.TID 0000.0001)                         cg2d_res =    9.56830087872845E-12
(PID.TID 0000.0001) // =======================================================
(PID.TID 0000.0001) // Begin MONITOR dynamic field statistics
(PID.TID 0000.0001) // =======================================================
(PID.TID 0000.0001) %MON time_tsnumber                =                    52
(PID.TID 0000.0001) %MON time_secondsf                =   6.2400000000000E+04
(PID.TID 0000.0001) %MON dynstat_eta_max              =   4.0037622437238E-04
(PID.TID 0000.0001) %MON dynstat_eta_min              =  -4.1512966932299E-04
(PID.TID 0000.0001) %MON dynstat_eta_mean             =   1.4414937485885E-17
(PID.TID 0000.0001) %MON dynstat_eta_sd               =   3.7332140134179E-04
(PID.TID 0000.0001) %MON dynstat_eta_del2             =   3.8743680544709E-06
(PID.TID 0000.0001) %MON dynstat_uvel_max             =   2.5751402308361E-02
(PID.TID 0000.0001) %MON dynstat_uvel_min             =  -2.5753081299968E-02
(PID.TID 0000.0001) %MON dynstat_uvel_mean            =  -9.1495732737940E-07
(PID.TID 0000.0001) %MON dynstat_uvel_sd              =   5.9728318166083E-03
(PID.TID 0000.0001) %MON dynstat_uvel_del2            =   1.9578865212371E-04
(PID.TID 0000.0001) %MON dynstat_vvel_max             =   1.0066476010904E-02
(PID.TID 0000.0001) %MON dynstat_vvel_min             =  -1.0064294450314E-02
(PID.TID 0000.0001) %MON dynstat_vvel_mean            =  -2.2501986829524E-10
(PID.TID 0000.0001) %MON dynstat_vvel_sd              =   3.4815603633889E-03
(PID.TID 0000.0001) %MON dynstat_vvel_del2            =   1.2025580014507E-04
(PID.TID 0000.0001) %MON dynstat_wvel_max             =   1.7823004085664E-04
(PID.TID 0000.0001) %MON dynstat_wvel_min             =  -1.7829563727666E-04
(PID.TID 0000.0001) %MON dynstat_wvel_mean            =   4.4894515964736E-21
(PID.TID 0000.0001) %MON dynstat_wvel_sd              =   5.8815399144810E-05
(PID.TID 0000.0001) %MON dynstat_wvel_del2            =   7.0688744122818E-06
(PID.TID 0000.0001) %MON dynstat_theta_max            =   1.7020391872684E+01
(PID.TID 0000.0001) %MON dynstat_theta_min            =   1.6979608188987E+01
(PID.TID 0000.0001) %MON dynstat_theta_mean           =   1.6999999916860E+01
(PID.TID 0000.0001) %MON dynstat_theta_sd             =   1.8680044563165E-02
(PID.TID 0000.0001) %MON dynstat_theta_del2           =   1.9609263431583E-04
(PID.TID 0000.0001) %MON dynstat_salt_max             =   1.7020387109310E+01
(PID.TID 0000.0001) %MON dynstat_salt_min             =   1.6979612982850E+01
(PID.TID 0000.0001) %MON dynstat_salt_mean            =   1.7000000005832E+01
(PID.TID 0000.0001) %MON dynstat_salt_sd              =   1.8683463884942E-02
(PID.TID 0000.0001) %MON dynstat_salt_del2            =   1.9615645793695E-04
(PID.TID 0000.0001) %MON advcfl_uvel_max              =   3.0903697559962E-02
(PID.TID 0000.0001) %MON advcfl_vvel_max              =   1.2079771213085E-02
(PID.TID 0000.0001) %MON advcfl_wvel_max              =   4.2790952946399E-02
(PID.TID 0000.0001) %MON advcfl_W_hf_max              =   4.2790952946399E-02
(PID.TID 0000.0001) %MON pe_b_mean                    =   3.4180215048626E-09
(PID.TID 0000.0001) %MON ke_max                       =   3.5541992184430E-04
(PID.TID 0000.0001) %MON ke_mean                      =   2.3655566403999E-05
(PID.TID 0000.0001) %MON ke_vol                       =   2.5000000000000E+11
(PID.TID 0000.0001) %MON vort_r_min                   =  -8.3789082657783E-06
(PID.TID 0000.0001) %MON vort_r_max                   =   9.2345332814652E-06
(PID.TID 0000.0001) %MON vort_a_mean                  =   7.2900000000000E-05
(PID.TID 0000.0001) %MON vort_a_sd                    =   2.2728719933123E-06
(PID.TID 0000.0001) %MON vort_p_mean                  =   7.7363265306122E-05
(PID.TID 0000.0001) %MON vort_p_sd                    =   3.1010929991926E-05
(PID.TID 0000.0001) %MON surfExpan_theta_mean         =  -4.2610039317838E-13
(PID.TID 0000.0001) %MON surfExpan_salt_mean          =  -3.3698917714895E-16
(PID.TID 0000.0001) // =======================================================
(PID.TID 0000.0001) // End MONITOR dynamic field statistics
(PID.TID 0000.0001) // =======================================================
 cg2d: Sum(rhs),rhsMax =  -1.62452408296321E-13  7.88929659315956E-04
(PID.TID 0000.0001)                    cg2d_init_res =    8.65738500625998E-02
(PID.TID 0000.0001)                       cg2d_iters =    77
(PID.TID 0000.0001)                         cg2d_res =    8.76728212347170E-12
(PID.TID 0000.0001) // =======================================================
(PID.TID 0000.0001) // Begin MONITOR dynamic field statistics
(PID.TID 0000.0001) // =======================================================
(PID.TID 0000.0001) %MON time_tsnumber                =                    53
(PID.TID 0000.0001) %MON time_secondsf                =   6.3600000000000E+04
(PID.TID 0000.0001) %MON dynstat_eta_max              =   4.0067395047065E-04
(PID.TID 0000.0001) %MON dynstat_eta_min              =  -4.1483195635427E-04
(PID.TID 0000.0001) %MON dynstat_eta_mean             =   1.6097870405574E-17
(PID.TID 0000.0001) %MON dynstat_eta_sd               =   3.7331962754362E-04
(PID.TID 0000.0001) %MON dynstat_eta_del2             =   3.8726968793733E-06
(PID.TID 0000.0001) %MON dynstat_uvel_max             =   2.4722760644398E-02
(PID.TID 0000.0001) %MON dynstat_uvel_min             =  -2.4724399026347E-02
(PID.TID 0000.0001) %MON dynstat_uvel_mean            =  -9.1495610741013E-07
(PID.TID 0000.0001) %MON dynstat_uvel_sd              =   5.6727165937479E-03
(PID.TID 0000.0001) %MON dynstat_uvel_del2            =   1.9176512822893E-04
(PID.TID 0000.0001) %MON dynstat_vvel_max             =   1.0204351994181E-02
(PID.TID 0000.0001) %MON dynstat_vvel_min             =  -1.0202122155407E-02
(PID.TID 0000.0001) %MON dynstat_vvel_mean            =  -2.2547888437942E-10
(PID.TID 0000.0001) %MON dynstat_vvel_sd              =   3.5236399045627E-03
(PID.TID 0000.0001) %MON dynstat_vvel_del2            =   1.2056768981141E-04
(PID.TID 0000.0001) %MON dynstat_wvel_max             =   1.8028397203777E-04
(PID.TID 0000.0001) %MON dynstat_wvel_min             =  -1.8034976833614E-04
(PID.TID 0000.0001) %MON dynstat_wvel_mean            =  -8.0417951152131E-22
(PID.TID 0000.0001) %MON dynstat_wvel_sd              =   5.9347240884775E-05
(PID.TID 0000.0001) %MON dynstat_wvel_del2            =   7.0631702889098E-06
(PID.TID 0000.0001) %MON dynstat_theta_max            =   1.7020391872684E+01
(PID.TID 0000.0001) %MON dynstat_theta_min            =   1.6979608188987E+01
(PID.TID 0000.0001) %MON dynstat_theta_mean           =   1.6999999916862E+01
(PID.TID 0000.0001) %MON dynstat_theta_sd             =   1.8679980190484E-02
(PID.TID 0000.0001) %MON dynstat_theta_del2           =   1.9611084751481E-04
(PID.TID 0000.0001) %MON dynstat_salt_max             =   1.7020387109310E+01
(PID.TID 0000.0001) %MON dynstat_salt_min             =   1.6979612982850E+01
(PID.TID 0000.0001) %MON dynstat_salt_mean            =   1.7000000005832E+01
(PID.TID 0000.0001) %MON dynstat_salt_sd              =   1.8683361038480E-02
(PID.TID 0000.0001) %MON dynstat_salt_del2            =   1.9665373623054E-04
(PID.TID 0000.0001) %MON advcfl_uvel_max              =   2.9669278831616E-02
(PID.TID 0000.0001) %MON advcfl_vvel_max              =   1.2245222393017E-02
(PID.TID 0000.0001) %MON advcfl_wvel_max              =   4.3283944400675E-02
(PID.TID 0000.0001) %MON advcfl_W_hf_max              =   4.3283944400675E-02
(PID.TID 0000.0001) %MON pe_b_mean                    =   3.4179890241858E-09
(PID.TID 0000.0001) %MON ke_max                       =   3.3056362733911E-04
(PID.TID 0000.0001) %MON ke_mean                      =   2.2049555520037E-05
(PID.TID 0000.0001) %MON ke_vol                       =   2.5000000000000E+11
(PID.TID 0000.0001) %MON vort_r_min                   =  -8.2126755814357E-06
(PID.TID 0000.0001) %MON vort_r_max                   =   8.9949715415294E-06
(PID.TID 0000.0001) %MON vort_a_mean                  =   7.2900000000000E-05
(PID.TID 0000.0001) %MON vort_a_sd                    =   2.2067519334291E-06
(PID.TID 0000.0001) %MON vort_p_mean                  =   7.7363265306122E-05
(PID.TID 0000.0001) %MON vort_p_sd                    =   3.1005862395647E-05
(PID.TID 0000.0001) %MON surfExpan_theta_mean         =  -3.8689780073228E-13
(PID.TID 0000.0001) %MON surfExpan_salt_mean          =  -1.6254993982821E-16
(PID.TID 0000.0001) // =======================================================
(PID.TID 0000.0001) // End MONITOR dynamic field statistics
(PID.TID 0000.0001) // =======================================================
 cg2d: Sum(rhs),rhsMax =  -1.04401621896233E-13  7.89689133179575E-04
(PID.TID 0000.0001)                    cg2d_init_res =    8.59904362766688E-02
(PID.TID 0000.0001)                       cg2d_iters =    77
(PID.TID 0000.0001)                         cg2d_res =    8.24843084696698E-12
(PID.TID 0000.0001) // =======================================================
(PID.TID 0000.0001) // Begin MONITOR dynamic field statistics
(PID.TID 0000.0001) // =======================================================
(PID.TID 0000.0001) %MON time_tsnumber                =                    54
(PID.TID 0000.0001) %MON time_secondsf                =   6.4800000000000E+04
(PID.TID 0000.0001) %MON dynstat_eta_max              =   4.0094845483255E-04
(PID.TID 0000.0001) %MON dynstat_eta_min              =  -4.1455746449982E-04
(PID.TID 0000.0001) %MON dynstat_eta_mean             =   6.0649002575630E-18
(PID.TID 0000.0001) %MON dynstat_eta_sd               =   3.7331963745881E-04
(PID.TID 0000.0001) %MON dynstat_eta_del2             =   3.8711184347063E-06
(PID.TID 0000.0001) %MON dynstat_uvel_max             =   2.3693214827851E-02
(PID.TID 0000.0001) %MON dynstat_uvel_min             =  -2.3694808872891E-02
(PID.TID 0000.0001) %MON dynstat_uvel_mean            =  -9.1495646837063E-07
(PID.TID 0000.0001) %MON dynstat_uvel_sd              =   5.3739213017177E-03
(PID.TID 0000.0001) %MON dynstat_uvel_del2            =   1.8804346504701E-04
(PID.TID 0000.0001) %MON dynstat_vvel_max             =   1.0258981278209E-02
(PID.TID 0000.0001) %MON dynstat_vvel_min             =  -1.0256706030422E-02
(PID.TID 0000.0001) %MON dynstat_vvel_mean            =  -2.2322850504013E-10
(PID.TID 0000.0001) %MON dynstat_vvel_sd              =   3.5382157627513E-03
(PID.TID 0000.0001) %MON dynstat_vvel_del2            =   1.2074812932691E-04
(PID.TID 0000.0001) %MON dynstat_wvel_max             =   1.8137495921477E-04
(PID.TID 0000.0001) %MON dynstat_wvel_min             =  -1.8144181068223E-04
(PID.TID 0000.0001) %MON dynstat_wvel_mean            =   1.9897818426216E-21
(PID.TID 0000.0001) %MON dynstat_wvel_sd              =   5.9604890400292E-05
(PID.TID 0000.0001) %MON dynstat_wvel_del2            =   7.0589162212368E-06
(PID.TID 0000.0001) %MON dynstat_theta_max            =   1.7020391872684E+01
(PID.TID 0000.0001) %MON dynstat_theta_min            =   1.6979608188987E+01
(PID.TID 0000.0001) %MON dynstat_theta_mean           =   1.6999999916864E+01
(PID.TID 0000.0001) %MON dynstat_theta_sd             =   1.8679915209840E-02
(PID.TID 0000.0001) %MON dynstat_theta_del2           =   1.9612789439272E-04
(PID.TID 0000.0001) %MON dynstat_salt_max             =   1.7020387109310E+01
(PID.TID 0000.0001) %MON dynstat_salt_min             =   1.6979612982850E+01
(PID.TID 0000.0001) %MON dynstat_salt_mean            =   1.7000000005832E+01
(PID.TID 0000.0001) %MON dynstat_salt_sd              =   1.8683001260021E-02
(PID.TID 0000.0001) %MON dynstat_salt_del2            =   1.9854053055058E-04
(PID.TID 0000.0001) %MON advcfl_uvel_max              =   2.8433770647469E-02
(PID.TID 0000.0001) %MON advcfl_vvel_max              =   1.2310777533851E-02
(PID.TID 0000.0001) %MON advcfl_wvel_max              =   4.3546034563735E-02
(PID.TID 0000.0001) %MON advcfl_W_hf_max              =   4.3546034563735E-02
(PID.TID 0000.0001) %MON pe_b_mean                    =   3.4179892057460E-09
(PID.TID 0000.0001) %MON ke_max                       =   3.0611995797250E-04
(PID.TID 0000.0001) %MON ke_mean                      =   2.0448621473316E-05
(PID.TID 0000.0001) %MON ke_vol                       =   2.5000000000000E+11
(PID.TID 0000.0001) %MON vort_r_min                   =  -8.0481113263868E-06
(PID.TID 0000.0001) %MON vort_r_max                   =   8.7563232457664E-06
(PID.TID 0000.0001) %MON vort_a_mean                  =   7.2900000000000E-05
(PID.TID 0000.0001) %MON vort_a_sd                    =   2.1415691918887E-06
(PID.TID 0000.0001) %MON vort_p_mean                  =   7.7363265306123E-05
(PID.TID 0000.0001) %MON vort_p_sd                    =   3.1001012427727E-05
(PID.TID 0000.0001) %MON surfExpan_theta_mean         =  -3.4415024984236E-13
(PID.TID 0000.0001) %MON surfExpan_salt_mean          =  -1.1178208560954E-16
(PID.TID 0000.0001) // =======================================================
(PID.TID 0000.0001) // End MONITOR dynamic field statistics
(PID.TID 0000.0001) // =======================================================
 cg2d: Sum(rhs),rhsMax =  -9.87488628194366E-14  7.90384831644416E-04
(PID.TID 0000.0001)                    cg2d_init_res =    8.86756112584152E-02
(PID.TID 0000.0001)                       cg2d_iters =    81
(PID.TID 0000.0001)                         cg2d_res =    8.40214456190527E-12
(PID.TID 0000.0001) // =======================================================
(PID.TID 0000.0001) // Begin MONITOR dynamic field statistics
(PID.TID 0000.0001) // =======================================================
(PID.TID 0000.0001) %MON time_tsnumber                =                    55
(PID.TID 0000.0001) %MON time_secondsf                =   6.6000000000000E+04
(PID.TID 0000.0001) %MON dynstat_eta_max              =   4.0119372984992E-04
(PID.TID 0000.0001) %MON dynstat_eta_min              =  -4.1431221565938E-04
(PID.TID 0000.0001) %MON dynstat_eta_mean             =   2.4900654189142E-17
(PID.TID 0000.0001) %MON dynstat_eta_sd               =   3.7332104562149E-04
(PID.TID 0000.0001) %MON dynstat_eta_del2             =   3.8696347624747E-06
(PID.TID 0000.0001) %MON dynstat_uvel_max             =   2.2670291107667E-02
(PID.TID 0000.0001) %MON dynstat_uvel_min             =  -2.2671837601214E-02
(PID.TID 0000.0001) %MON dynstat_uvel_mean            =  -9.1495828554624E-07
(PID.TID 0000.0001) %MON dynstat_uvel_sd              =   5.0791162039403E-03
(PID.TID 0000.0001) %MON dynstat_uvel_del2            =   1.8464636169617E-04
(PID.TID 0000.0001) %MON dynstat_vvel_max             =   1.0231017281515E-02
(PID.TID 0000.0001) %MON dynstat_vvel_min             =  -1.0228699039491E-02
(PID.TID 0000.0001) %MON dynstat_vvel_mean            =  -2.1567096701200E-10
(PID.TID 0000.0001) %MON dynstat_vvel_sd              =   3.5252835392737E-03
(PID.TID 0000.0001) %MON dynstat_vvel_del2            =   1.2078071401170E-04
(PID.TID 0000.0001) %MON dynstat_wvel_max             =   1.8150769632316E-04
(PID.TID 0000.0001) %MON dynstat_wvel_min             =  -1.8159015845630E-04
(PID.TID 0000.0001) %MON dynstat_wvel_mean            =  -3.9991159090072E-21
(PID.TID 0000.0001) %MON dynstat_wvel_sd              =   5.9579422691432E-05
(PID.TID 0000.0001) %MON dynstat_wvel_del2            =   7.0565734955332E-06
(PID.TID 0000.0001) %MON dynstat_theta_max            =   1.7020391872684E+01
(PID.TID 0000.0001) %MON dynstat_theta_min            =   1.6979608188987E+01
(PID.TID 0000.0001) %MON dynstat_theta_mean           =   1.6999999916866E+01
(PID.TID 0000.0001) %MON dynstat_theta_sd             =   1.8679850024129E-02
(PID.TID 0000.0001) %MON dynstat_theta_del2           =   1.9614377663783E-04
(PID.TID 0000.0001) %MON dynstat_salt_max             =   1.7020387109310E+01
(PID.TID 0000.0001) %MON dynstat_salt_min             =   1.6979612982850E+01
(PID.TID 0000.0001) %MON dynstat_salt_mean            =   1.7000000005832E+01
(PID.TID 0000.0001) %MON dynstat_salt_sd              =   1.8682648158333E-02
(PID.TID 0000.0001) %MON dynstat_salt_del2            =   1.9869648136360E-04
(PID.TID 0000.0001) %MON advcfl_uvel_max              =   2.7206205121456E-02
(PID.TID 0000.0001) %MON advcfl_vvel_max              =   1.2277220737818E-02
(PID.TID 0000.0001) %MON advcfl_wvel_max              =   4.3581638029511E-02
(PID.TID 0000.0001) %MON advcfl_W_hf_max              =   4.3581638029511E-02
(PID.TID 0000.0001) %MON pe_b_mean                    =   3.4180149911237E-09
(PID.TID 0000.0001) %MON ke_max                       =   2.8225093374186E-04
(PID.TID 0000.0001) %MON ke_mean                      =   1.8863970660630E-05
(PID.TID 0000.0001) %MON ke_vol                       =   2.5000000000000E+11
(PID.TID 0000.0001) %MON vort_r_min                   =  -7.8863107732105E-06
(PID.TID 0000.0001) %MON vort_r_max                   =   8.5202194852547E-06
(PID.TID 0000.0001) %MON vort_a_mean                  =   7.2900000000000E-05
(PID.TID 0000.0001) %MON vort_a_sd                    =   2.0778743204448E-06
(PID.TID 0000.0001) %MON vort_p_mean                  =   7.7363265306122E-05
(PID.TID 0000.0001) %MON vort_p_sd                    =   3.0996413084573E-05
(PID.TID 0000.0001) %MON surfExpan_theta_mean         =  -3.0400901390544E-13
(PID.TID 0000.0001) %MON surfExpan_salt_mean          =  -1.8789853472770E-15
(PID.TID 0000.0001) // =======================================================
(PID.TID 0000.0001) // End MONITOR dynamic field statistics
(PID.TID 0000.0001) // =======================================================
 cg2d: Sum(rhs),rhsMax =  -1.57030150601395E-13  7.91887041758921E-04
(PID.TID 0000.0001)                    cg2d_init_res =    9.04938189784396E-02
(PID.TID 0000.0001)                       cg2d_iters =    83
(PID.TID 0000.0001)                         cg2d_res =    6.32457819647917E-12
(PID.TID 0000.0001) // =======================================================
(PID.TID 0000.0001) // Begin MONITOR dynamic field statistics
(PID.TID 0000.0001) // =======================================================
(PID.TID 0000.0001) %MON time_tsnumber                =                    56
(PID.TID 0000.0001) %MON time_secondsf                =   6.7200000000000E+04
(PID.TID 0000.0001) %MON dynstat_eta_max              =   4.0140731278949E-04
(PID.TID 0000.0001) %MON dynstat_eta_min              =  -4.1409860083030E-04
(PID.TID 0000.0001) %MON dynstat_eta_mean             =   7.5791607317965E-18
(PID.TID 0000.0001) %MON dynstat_eta_sd               =   3.7332415576296E-04
(PID.TID 0000.0001) %MON dynstat_eta_del2             =   3.8682511876810E-06
(PID.TID 0000.0001) %MON dynstat_uvel_max             =   2.1661362280024E-02
(PID.TID 0000.0001) %MON dynstat_uvel_min             =  -2.1662858589013E-02
(PID.TID 0000.0001) %MON dynstat_uvel_mean            =  -9.1496045697245E-07
(PID.TID 0000.0001) %MON dynstat_uvel_sd              =   4.7909404672742E-03
(PID.TID 0000.0001) %MON dynstat_uvel_del2            =   1.8155026434239E-04
(PID.TID 0000.0001) %MON dynstat_vvel_max             =   1.0121698274791E-02
(PID.TID 0000.0001) %MON dynstat_vvel_min             =  -1.0119366453451E-02
(PID.TID 0000.0001) %MON dynstat_vvel_mean            =  -2.1280580744150E-10
(PID.TID 0000.0001) %MON dynstat_vvel_sd              =   3.4850945433515E-03
(PID.TID 0000.0001) %MON dynstat_vvel_del2            =   1.2065198092249E-04
(PID.TID 0000.0001) %MON dynstat_wvel_max             =   1.8066961865181E-04
(PID.TID 0000.0001) %MON dynstat_wvel_min             =  -1.8074710019643E-04
(PID.TID 0000.0001) %MON dynstat_wvel_mean            =   2.8274607426487E-22
(PID.TID 0000.0001) %MON dynstat_wvel_sd              =   5.9269809611717E-05
(PID.TID 0000.0001) %MON dynstat_wvel_del2            =   7.0562653821522E-06
(PID.TID 0000.0001) %MON dynstat_theta_max            =   1.7020391872684E+01
(PID.TID 0000.0001) %MON dynstat_theta_min            =   1.6979608188987E+01
(PID.TID 0000.0001) %MON dynstat_theta_mean           =   1.6999999916868E+01
(PID.TID 0000.0001) %MON dynstat_theta_sd             =   1.8679785557176E-02
(PID.TID 0000.0001) %MON dynstat_theta_del2           =   1.9615863513593E-04
(PID.TID 0000.0001) %MON dynstat_salt_max             =   1.7020387109310E+01
(PID.TID 0000.0001) %MON dynstat_salt_min             =   1.6979612982850E+01
(PID.TID 0000.0001) %MON dynstat_salt_mean            =   1.7000000005832E+01
(PID.TID 0000.0001) %MON dynstat_salt_sd              =   1.8682438738108E-02
(PID.TID 0000.0001) %MON dynstat_salt_del2            =   1.9960321439524E-04
(PID.TID 0000.0001) %MON advcfl_uvel_max              =   2.5995430306815E-02
(PID.TID 0000.0001) %MON advcfl_vvel_max              =   1.2146037929749E-02
(PID.TID 0000.0001) %MON advcfl_wvel_max              =   4.3379304047143E-02
(PID.TID 0000.0001) %MON advcfl_W_hf_max              =   4.3379304047143E-02
(PID.TID 0000.0001) %MON pe_b_mean                    =   3.4180719423969E-09
(PID.TID 0000.0001) %MON ke_max                       =   2.5911332555214E-04
(PID.TID 0000.0001) %MON ke_mean                      =   1.7306580007587E-05
(PID.TID 0000.0001) %MON ke_vol                       =   2.5000000000000E+11
(PID.TID 0000.0001) %MON vort_r_min                   =  -7.7282654616048E-06
(PID.TID 0000.0001) %MON vort_r_max                   =   8.2881803192870E-06
(PID.TID 0000.0001) %MON vort_a_mean                  =   7.2900000000000E-05
(PID.TID 0000.0001) %MON vort_a_sd                    =   2.0161799699753E-06
(PID.TID 0000.0001) %MON vort_p_mean                  =   7.7363265306123E-05
(PID.TID 0000.0001) %MON vort_p_sd                    =   3.0992090138920E-05
(PID.TID 0000.0001) %MON surfExpan_theta_mean         =  -2.5574371049419E-13
(PID.TID 0000.0001) %MON surfExpan_salt_mean          =   8.5105748431320E-16
(PID.TID 0000.0001) // =======================================================
(PID.TID 0000.0001) // End MONITOR dynamic field statistics
(PID.TID 0000.0001) // =======================================================
 cg2d: Sum(rhs),rhsMax =  -1.42536264909066E-14  7.93017675403377E-04
(PID.TID 0000.0001)                    cg2d_init_res =    8.69140730736413E-02
(PID.TID 0000.0001)                       cg2d_iters =    77
(PID.TID 0000.0001)                         cg2d_res =    9.72570151221029E-12
(PID.TID 0000.0001) // =======================================================
(PID.TID 0000.0001) // Begin MONITOR dynamic field statistics
(PID.TID 0000.0001) // =======================================================
(PID.TID 0000.0001) %MON time_tsnumber                =                    57
(PID.TID 0000.0001) %MON time_secondsf                =   6.8400000000000E+04
(PID.TID 0000.0001) %MON dynstat_eta_max              =   4.0159106805989E-04
(PID.TID 0000.0001) %MON dynstat_eta_min              =  -4.1391488365820E-04
(PID.TID 0000.0001) %MON dynstat_eta_mean             =   1.2553855813779E-17
(PID.TID 0000.0001) %MON dynstat_eta_sd               =   3.7332837081436E-04
(PID.TID 0000.0001) %MON dynstat_eta_del2             =   3.8669626617512E-06
(PID.TID 0000.0001) %MON dynstat_uvel_max             =   2.0673598480400E-02
(PID.TID 0000.0001) %MON dynstat_uvel_min             =  -2.0675122624030E-02
(PID.TID 0000.0001) %MON dynstat_uvel_mean            =  -9.1496468846476E-07
(PID.TID 0000.0001) %MON dynstat_uvel_sd              =   4.5119694910128E-03
(PID.TID 0000.0001) %MON dynstat_uvel_del2            =   1.7866407440031E-04
(PID.TID 0000.0001) %MON dynstat_vvel_max             =   9.9328779655592E-03
(PID.TID 0000.0001) %MON dynstat_vvel_min             =  -9.9305109830913E-03
(PID.TID 0000.0001) %MON dynstat_vvel_mean            =  -2.0320025541085E-10
(PID.TID 0000.0001) %MON dynstat_vvel_sd              =   3.4181542413796E-03
(PID.TID 0000.0001) %MON dynstat_vvel_del2            =   1.2035950899961E-04
(PID.TID 0000.0001) %MON dynstat_wvel_max             =   1.7887601568093E-04
(PID.TID 0000.0001) %MON dynstat_wvel_min             =  -1.7895470352289E-04
(PID.TID 0000.0001) %MON dynstat_wvel_mean            =  -9.9626888250537E-22
(PID.TID 0000.0001) %MON dynstat_wvel_sd              =   5.8682337596310E-05
(PID.TID 0000.0001) %MON dynstat_wvel_del2            =   7.0568125696761E-06
(PID.TID 0000.0001) %MON dynstat_theta_max            =   1.7020391872684E+01
(PID.TID 0000.0001) %MON dynstat_theta_min            =   1.6979608188987E+01
(PID.TID 0000.0001) %MON dynstat_theta_mean           =   1.6999999916869E+01
(PID.TID 0000.0001) %MON dynstat_theta_sd             =   1.8679722000683E-02
(PID.TID 0000.0001) %MON dynstat_theta_del2           =   1.9617262350304E-04
(PID.TID 0000.0001) %MON dynstat_salt_max             =   1.7020387109310E+01
(PID.TID 0000.0001) %MON dynstat_salt_min             =   1.6979612982850E+01
(PID.TID 0000.0001) %MON dynstat_salt_mean            =   1.7000000005832E+01
(PID.TID 0000.0001) %MON dynstat_salt_sd              =   1.8682202335060E-02
(PID.TID 0000.0001) %MON dynstat_salt_del2            =   2.0047553982236E-04
(PID.TID 0000.0001) %MON advcfl_uvel_max              =   2.4810147148836E-02
(PID.TID 0000.0001) %MON advcfl_vvel_max              =   1.1919453558671E-02
(PID.TID 0000.0001) %MON advcfl_wvel_max              =   4.2949128845493E-02
(PID.TID 0000.0001) %MON advcfl_W_hf_max              =   4.2949128845493E-02
(PID.TID 0000.0001) %MON pe_b_mean                    =   3.4181491269566E-09
(PID.TID 0000.0001) %MON ke_max                       =   2.3685748955265E-04
(PID.TID 0000.0001) %MON ke_mean                      =   1.5787148403069E-05
(PID.TID 0000.0001) %MON ke_vol                       =   2.5000000000000E+11
(PID.TID 0000.0001) %MON vort_r_min                   =  -7.5748644104707E-06
(PID.TID 0000.0001) %MON vort_r_max                   =   8.0617168422651E-06
(PID.TID 0000.0001) %MON vort_a_mean                  =   7.2900000000000E-05
(PID.TID 0000.0001) %MON vort_a_sd                    =   1.9569530119137E-06
(PID.TID 0000.0001) %MON vort_p_mean                  =   7.7363265306123E-05
(PID.TID 0000.0001) %MON vort_p_sd                    =   3.0988062321956E-05
(PID.TID 0000.0001) %MON surfExpan_theta_mean         =  -2.1331513077288E-13
(PID.TID 0000.0001) %MON surfExpan_salt_mean          =   8.3787138375490E-17
(PID.TID 0000.0001) // =======================================================
(PID.TID 0000.0001) // End MONITOR dynamic field statistics
(PID.TID 0000.0001) // =======================================================
 cg2d: Sum(rhs),rhsMax =  -5.00474228032344E-14  7.94131820051919E-04
(PID.TID 0000.0001)                    cg2d_init_res =    8.68753765328250E-02
(PID.TID 0000.0001)                       cg2d_iters =    74
(PID.TID 0000.0001)                         cg2d_res =    9.35367244880977E-12
(PID.TID 0000.0001) // =======================================================
(PID.TID 0000.0001) // Begin MONITOR dynamic field statistics
(PID.TID 0000.0001) // =======================================================
(PID.TID 0000.0001) %MON time_tsnumber                =                    58
(PID.TID 0000.0001) %MON time_secondsf                =   6.9600000000000E+04
(PID.TID 0000.0001) %MON dynstat_eta_max              =   4.0174283470212E-04
(PID.TID 0000.0001) %MON dynstat_eta_min              =  -4.1376311928001E-04
(PID.TID 0000.0001) %MON dynstat_eta_mean             =  -4.4230017626212E-18
(PID.TID 0000.0001) %MON dynstat_eta_sd               =   3.7333349795286E-04
(PID.TID 0000.0001) %MON dynstat_eta_del2             =   3.8657387518543E-06
(PID.TID 0000.0001) %MON dynstat_uvel_max             =   1.9713920335958E-02
(PID.TID 0000.0001) %MON dynstat_uvel_min             =  -1.9715483790045E-02
(PID.TID 0000.0001) %MON dynstat_uvel_mean            =  -9.1496953212865E-07
(PID.TID 0000.0001) %MON dynstat_uvel_sd              =   4.2446756772942E-03
(PID.TID 0000.0001) %MON dynstat_uvel_del2            =   1.7599119920488E-04
(PID.TID 0000.0001) %MON dynstat_vvel_max             =   9.6669786734772E-03
(PID.TID 0000.0001) %MON dynstat_vvel_min             =  -9.6645796975722E-03
(PID.TID 0000.0001) %MON dynstat_vvel_mean            =  -1.9243877936717E-10
(PID.TID 0000.0001) %MON dynstat_vvel_sd              =   3.3252106930878E-03
(PID.TID 0000.0001) %MON dynstat_vvel_del2            =   1.1990478373607E-04
(PID.TID 0000.0001) %MON dynstat_wvel_max             =   1.7615489537481E-04
(PID.TID 0000.0001) %MON dynstat_wvel_min             =  -1.7623373156516E-04
(PID.TID 0000.0001) %MON dynstat_wvel_mean            =   6.7203652760830E-22
(PID.TID 0000.0001) %MON dynstat_wvel_sd              =   5.7830686852522E-05
(PID.TID 0000.0001) %MON dynstat_wvel_del2            =   7.0575026942287E-06
(PID.TID 0000.0001) %MON dynstat_theta_max            =   1.7020391872684E+01
(PID.TID 0000.0001) %MON dynstat_theta_min            =   1.6979608188987E+01
(PID.TID 0000.0001) %MON dynstat_theta_mean           =   1.6999999916870E+01
(PID.TID 0000.0001) %MON dynstat_theta_sd             =   1.8679659826872E-02
(PID.TID 0000.0001) %MON dynstat_theta_del2           =   1.9618605266138E-04
(PID.TID 0000.0001) %MON dynstat_salt_max             =   1.7020387109310E+01
(PID.TID 0000.0001) %MON dynstat_salt_min             =   1.6979612982850E+01
(PID.TID 0000.0001) %MON dynstat_salt_mean            =   1.7000000005832E+01
(PID.TID 0000.0001) %MON dynstat_salt_sd              =   1.8681936423665E-02
(PID.TID 0000.0001) %MON dynstat_salt_del2            =   2.0139438521222E-04
(PID.TID 0000.0001) %MON advcfl_uvel_max              =   2.3658580548054E-02
(PID.TID 0000.0001) %MON advcfl_vvel_max              =   1.1600374408173E-02
(PID.TID 0000.0001) %MON advcfl_wvel_max              =   4.2296095575638E-02
(PID.TID 0000.0001) %MON advcfl_W_hf_max              =   4.2296095575638E-02
(PID.TID 0000.0001) %MON pe_b_mean                    =   3.4182430145135E-09
(PID.TID 0000.0001) %MON ke_max                       =   2.1562626471355E-04
(PID.TID 0000.0001) %MON ke_mean                      =   1.4316008774935E-05
(PID.TID 0000.0001) %MON ke_vol                       =   2.5000000000000E+11
(PID.TID 0000.0001) %MON vort_r_min                   =  -7.4269567121511E-06
(PID.TID 0000.0001) %MON vort_r_max                   =   7.8422091794603E-06
(PID.TID 0000.0001) %MON vort_a_mean                  =   7.2900000000000E-05
(PID.TID 0000.0001) %MON vort_a_sd                    =   1.9006086773626E-06
(PID.TID 0000.0001) %MON vort_p_mean                  =   7.7363265306123E-05
(PID.TID 0000.0001) %MON vort_p_sd                    =   3.0984341772199E-05
(PID.TID 0000.0001) %MON surfExpan_theta_mean         =  -1.7308410717217E-13
(PID.TID 0000.0001) %MON surfExpan_salt_mean          =  -9.8312422402235E-17
(PID.TID 0000.0001) // =======================================================
(PID.TID 0000.0001) // End MONITOR dynamic field statistics
(PID.TID 0000.0001) // =======================================================
 cg2d: Sum(rhs),rhsMax =  -6.09077675448044E-15  7.95308088109850E-04
(PID.TID 0000.0001)                    cg2d_init_res =    8.76127949801389E-02
(PID.TID 0000.0001)                       cg2d_iters =    74
(PID.TID 0000.0001)                         cg2d_res =    8.21594963978591E-12
(PID.TID 0000.0001) // =======================================================
(PID.TID 0000.0001) // Begin MONITOR dynamic field statistics
(PID.TID 0000.0001) // =======================================================
(PID.TID 0000.0001) %MON time_tsnumber                =                    59
(PID.TID 0000.0001) %MON time_secondsf                =   7.0800000000000E+04
(PID.TID 0000.0001) %MON dynstat_eta_max              =   4.0186267798538E-04
(PID.TID 0000.0001) %MON dynstat_eta_min              =  -4.1364327970849E-04
(PID.TID 0000.0001) %MON dynstat_eta_mean             =  -1.2587409231046E-17
(PID.TID 0000.0001) %MON dynstat_eta_sd               =   3.7333930625057E-04
(PID.TID 0000.0001) %MON dynstat_eta_del2             =   3.8645659622014E-06
(PID.TID 0000.0001) %MON dynstat_uvel_max             =   1.8788951432792E-02
(PID.TID 0000.0001) %MON dynstat_uvel_min             =  -1.8790553222611E-02
(PID.TID 0000.0001) %MON dynstat_uvel_mean            =  -9.1497500678382E-07
(PID.TID 0000.0001) %MON dynstat_uvel_sd              =   3.9913793695296E-03
(PID.TID 0000.0001) %MON dynstat_uvel_del2            =   1.7365668310945E-04
(PID.TID 0000.0001) %MON dynstat_vvel_max             =   9.3269739462405E-03
(PID.TID 0000.0001) %MON dynstat_vvel_min             =  -9.3245429974120E-03
(PID.TID 0000.0001) %MON dynstat_vvel_mean            =  -1.8074535341612E-10
(PID.TID 0000.0001) %MON dynstat_vvel_sd              =   3.2072506207997E-03
(PID.TID 0000.0001) %MON dynstat_vvel_del2            =   1.1929305501354E-04
(PID.TID 0000.0001) %MON dynstat_wvel_max             =   1.7253765690733E-04
(PID.TID 0000.0001) %MON dynstat_wvel_min             =  -1.7261722394301E-04
(PID.TID 0000.0001) %MON dynstat_wvel_mean            =   1.3506238442750E-21
(PID.TID 0000.0001) %MON dynstat_wvel_sd              =   5.6735385030459E-05
(PID.TID 0000.0001) %MON dynstat_wvel_del2            =   7.0578304036777E-06
(PID.TID 0000.0001) %MON dynstat_theta_max            =   1.7020391872684E+01
(PID.TID 0000.0001) %MON dynstat_theta_min            =   1.6979608188988E+01
(PID.TID 0000.0001) %MON dynstat_theta_mean           =   1.6999999916871E+01
(PID.TID 0000.0001) %MON dynstat_theta_sd             =   1.8679599567290E-02
(PID.TID 0000.0001) %MON dynstat_theta_del2           =   1.9619932515446E-04
(PID.TID 0000.0001) %MON dynstat_salt_max             =   1.7020387109310E+01
(PID.TID 0000.0001) %MON dynstat_salt_min             =   1.6979612982850E+01
(PID.TID 0000.0001) %MON dynstat_salt_mean            =   1.7000000005832E+01
(PID.TID 0000.0001) %MON dynstat_salt_sd              =   1.8681641964396E-02
(PID.TID 0000.0001) %MON dynstat_salt_del2            =   2.0237126071930E-04
(PID.TID 0000.0001) %MON advcfl_uvel_max              =   2.2548663867134E-02
(PID.TID 0000.0001) %MON advcfl_vvel_max              =   1.1192368735489E-02
(PID.TID 0000.0001) %MON advcfl_wvel_max              =   4.1428133746323E-02
(PID.TID 0000.0001) %MON advcfl_W_hf_max              =   4.1428133746323E-02
(PID.TID 0000.0001) %MON pe_b_mean                    =   3.4183493769353E-09
(PID.TID 0000.0001) %MON ke_max                       =   1.9555385433580E-04
(PID.TID 0000.0001) %MON ke_mean                      =   1.2903054195761E-05
(PID.TID 0000.0001) %MON ke_vol                       =   2.5000000000000E+11
(PID.TID 0000.0001) %MON vort_r_min                   =  -7.2852787641267E-06
(PID.TID 0000.0001) %MON vort_r_max                   =   7.6309927679614E-06
(PID.TID 0000.0001) %MON vort_a_mean                  =   7.2899999999999E-05
(PID.TID 0000.0001) %MON vort_a_sd                    =   1.8475030553926E-06
(PID.TID 0000.0001) %MON vort_p_mean                  =   7.7363265306122E-05
(PID.TID 0000.0001) %MON vort_p_sd                    =   3.0980934453295E-05
(PID.TID 0000.0001) %MON surfExpan_theta_mean         =  -1.3618645610905E-13
(PID.TID 0000.0001) %MON surfExpan_salt_mean          =  -1.0202886379137E-16
(PID.TID 0000.0001) // =======================================================
(PID.TID 0000.0001) // End MONITOR dynamic field statistics
(PID.TID 0000.0001) // =======================================================
 cg2d: Sum(rhs),rhsMax =   1.33341092074107E-13  7.96549130333741E-04
(PID.TID 0000.0001)                    cg2d_init_res =    8.86045587586664E-02
(PID.TID 0000.0001)                       cg2d_iters =    76
(PID.TID 0000.0001)                         cg2d_res =    8.04555902227174E-12
(PID.TID 0000.0001) // =======================================================
(PID.TID 0000.0001) // Begin MONITOR dynamic field statistics
(PID.TID 0000.0001) // =======================================================
(PID.TID 0000.0001) %MON time_tsnumber                =                    60
(PID.TID 0000.0001) %MON time_secondsf                =   7.2000000000000E+04
(PID.TID 0000.0001) %MON dynstat_eta_max              =   4.0195197451179E-04
(PID.TID 0000.0001) %MON dynstat_eta_min              =  -4.1355398841240E-04
(PID.TID 0000.0001) %MON dynstat_eta_mean             =  -3.3687369182522E-17
(PID.TID 0000.0001) %MON dynstat_eta_sd               =   3.7334555332553E-04
(PID.TID 0000.0001) %MON dynstat_eta_del2             =   3.8634269179882E-06
(PID.TID 0000.0001) %MON dynstat_uvel_max             =   1.7904977015958E-02
(PID.TID 0000.0001) %MON dynstat_uvel_min             =  -1.7906615481169E-02
(PID.TID 0000.0001) %MON dynstat_uvel_mean            =  -9.1498085773236E-07
(PID.TID 0000.0001) %MON dynstat_uvel_sd              =   3.7541906527639E-03
(PID.TID 0000.0001) %MON dynstat_uvel_del2            =   1.7174941194547E-04
(PID.TID 0000.0001) %MON dynstat_vvel_max             =   8.9163538843793E-03
(PID.TID 0000.0001) %MON dynstat_vvel_min             =  -8.9138927536162E-03
(PID.TID 0000.0001) %MON dynstat_vvel_mean            =  -1.6798998232953E-10
(PID.TID 0000.0001) %MON dynstat_vvel_sd              =   3.0654987586009E-03
(PID.TID 0000.0001) %MON dynstat_vvel_del2            =   1.1853111427437E-04
(PID.TID 0000.0001) %MON dynstat_wvel_max             =   1.6806271794135E-04
(PID.TID 0000.0001) %MON dynstat_wvel_min             =  -1.6814308635921E-04
(PID.TID 0000.0001) %MON dynstat_wvel_mean            =  -1.1058576411797E-21
(PID.TID 0000.0001) %MON dynstat_wvel_sd              =   5.5423787771145E-05
(PID.TID 0000.0001) %MON dynstat_wvel_del2            =   7.0575387027552E-06
(PID.TID 0000.0001) %MON dynstat_theta_max            =   1.7020391872684E+01
(PID.TID 0000.0001) %MON dynstat_theta_min            =   1.6979608188989E+01
(PID.TID 0000.0001) %MON dynstat_theta_mean           =   1.6999999916871E+01
(PID.TID 0000.0001) %MON dynstat_theta_sd             =   1.8679541779940E-02
(PID.TID 0000.0001) %MON dynstat_theta_del2           =   1.9621290024329E-04
(PID.TID 0000.0001) %MON dynstat_salt_max             =   1.7020387109310E+01
(PID.TID 0000.0001) %MON dynstat_salt_min             =   1.6979612982850E+01
(PID.TID 0000.0001) %MON dynstat_salt_mean            =   1.7000000005832E+01
(PID.TID 0000.0001) %MON dynstat_salt_sd              =   1.8681322169487E-02
(PID.TID 0000.0001) %MON dynstat_salt_del2            =   2.0339394181525E-04
(PID.TID 0000.0001) %MON advcfl_uvel_max              =   2.1487938577403E-02
(PID.TID 0000.0001) %MON advcfl_vvel_max              =   1.0699624661255E-02
(PID.TID 0000.0001) %MON advcfl_wvel_max              =   4.0354340726210E-02
(PID.TID 0000.0001) %MON advcfl_W_hf_max              =   4.0354340726210E-02
(PID.TID 0000.0001) %MON pe_b_mean                    =   3.4184637761595E-09
(PID.TID 0000.0001) %MON ke_max                       =   1.7676487917284E-04
(PID.TID 0000.0001) %MON ke_mean                      =   1.1557669813957E-05
(PID.TID 0000.0001) %MON ke_vol                       =   2.5000000000000E+11
(PID.TID 0000.0001) %MON vort_r_min                   =  -7.1504924991273E-06
(PID.TID 0000.0001) %MON vort_r_max                   =   7.4293051159361E-06
(PID.TID 0000.0001) %MON vort_a_mean                  =   7.2900000000000E-05
(PID.TID 0000.0001) %MON vort_a_sd                    =   1.7979276629973E-06
(PID.TID 0000.0001) %MON vort_p_mean                  =   7.7363265306122E-05
(PID.TID 0000.0001) %MON vort_p_sd                    =   3.0977840758570E-05
(PID.TID 0000.0001) %MON surfExpan_theta_mean         =  -1.0354077822304E-13
(PID.TID 0000.0001) %MON surfExpan_salt_mean          =  -9.6341620546564E-17
(PID.TID 0000.0001) // =======================================================
(PID.TID 0000.0001) // End MONITOR dynamic field statistics
(PID.TID 0000.0001) // =======================================================
 cg2d: Sum(rhs),rhsMax =   1.71176278446900E-13  7.97846378676550E-04
(PID.TID 0000.0001)                    cg2d_init_res =    8.95386702209511E-02
(PID.TID 0000.0001)                       cg2d_iters =    76
(PID.TID 0000.0001)                         cg2d_res =    6.92217802175260E-12
(PID.TID 0000.0001) // =======================================================
(PID.TID 0000.0001) // Begin MONITOR dynamic field statistics
(PID.TID 0000.0001) // =======================================================
(PID.TID 0000.0001) %MON time_tsnumber                =                    61
(PID.TID 0000.0001) %MON time_secondsf                =   7.3200000000000E+04
(PID.TID 0000.0001) %MON dynstat_eta_max              =   4.0201275123000E-04
(PID.TID 0000.0001) %MON dynstat_eta_min              =  -4.1349321677208E-04
(PID.TID 0000.0001) %MON dynstat_eta_mean             =  -1.7873274474334E-17
(PID.TID 0000.0001) %MON dynstat_eta_sd               =   3.7335200587377E-04
(PID.TID 0000.0001) %MON dynstat_eta_del2             =   3.8623042766289E-06
(PID.TID 0000.0001) %MON dynstat_uvel_max             =   1.7067902489147E-02
(PID.TID 0000.0001) %MON dynstat_uvel_min             =  -1.7069575893609E-02
(PID.TID 0000.0001) %MON dynstat_uvel_mean            =  -9.1498679976973E-07
(PID.TID 0000.0001) %MON dynstat_uvel_sd              =   3.5349417164448E-03
(PID.TID 0000.0001) %MON dynstat_uvel_del2            =   1.7026926349275E-04
(PID.TID 0000.0001) %MON dynstat_vvel_max             =   8.4390985342386E-03
(PID.TID 0000.0001) %MON dynstat_vvel_min             =  -8.4366091034487E-03
(PID.TID 0000.0001) %MON dynstat_vvel_mean            =  -1.5438319052148E-10
(PID.TID 0000.0001) %MON dynstat_vvel_sd              =   2.9014228129867E-03
(PID.TID 0000.0001) %MON dynstat_vvel_del2            =   1.1762905846765E-04
(PID.TID 0000.0001) %MON dynstat_wvel_max             =   1.6277422845950E-04
(PID.TID 0000.0001) %MON dynstat_wvel_min             =  -1.6285546420976E-04
(PID.TID 0000.0001) %MON dynstat_wvel_mean            =   1.0339127427469E-21
(PID.TID 0000.0001) %MON dynstat_wvel_sd              =   5.3930163258145E-05
(PID.TID 0000.0001) %MON dynstat_wvel_del2            =   7.0567503164879E-06
(PID.TID 0000.0001) %MON dynstat_theta_max            =   1.7020391872684E+01
(PID.TID 0000.0001) %MON dynstat_theta_min            =   1.6979608188996E+01
(PID.TID 0000.0001) %MON dynstat_theta_mean           =   1.6999999916872E+01
(PID.TID 0000.0001) %MON dynstat_theta_sd             =   1.8679486975521E-02
(PID.TID 0000.0001) %MON dynstat_theta_del2           =   1.9622726352774E-04
(PID.TID 0000.0001) %MON dynstat_salt_max             =   1.7020387109310E+01
(PID.TID 0000.0001) %MON dynstat_salt_min             =   1.6979612982850E+01
(PID.TID 0000.0001) %MON dynstat_salt_mean            =   1.7000000005832E+01
(PID.TID 0000.0001) %MON dynstat_salt_sd              =   1.8680983561437E-02
(PID.TID 0000.0001) %MON dynstat_salt_del2            =   2.0445403224847E-04
(PID.TID 0000.0001) %MON advcfl_uvel_max              =   2.0483491072331E-02
(PID.TID 0000.0001) %MON advcfl_vvel_max              =   1.0126918241086E-02
(PID.TID 0000.0001) %MON advcfl_wvel_max              =   3.9085311410343E-02
(PID.TID 0000.0001) %MON advcfl_W_hf_max              =   3.9085311410343E-02
(PID.TID 0000.0001) %MON pe_b_mean                    =   3.4185819401114E-09
(PID.TID 0000.0001) %MON ke_max                       =   1.5937345185070E-04
(PID.TID 0000.0001) %MON ke_mean                      =   1.0288668970997E-05
(PID.TID 0000.0001) %MON ke_vol                       =   2.5000000000000E+11
(PID.TID 0000.0001) %MON vort_r_min                   =  -7.0231787259447E-06
(PID.TID 0000.0001) %MON vort_r_max                   =   7.2382998399271E-06
(PID.TID 0000.0001) %MON vort_a_mean                  =   7.2900000000000E-05
(PID.TID 0000.0001) %MON vort_a_sd                    =   1.7521056395192E-06
(PID.TID 0000.0001) %MON vort_p_mean                  =   7.7363265306122E-05
(PID.TID 0000.0001) %MON vort_p_sd                    =   3.0975056200841E-05
(PID.TID 0000.0001) %MON surfExpan_theta_mean         =  -7.4500027335703E-14
(PID.TID 0000.0001) %MON surfExpan_salt_mean          =  -7.9884855597032E-17
(PID.TID 0000.0001) // =======================================================
(PID.TID 0000.0001) // End MONITOR dynamic field statistics
(PID.TID 0000.0001) // =======================================================
 cg2d: Sum(rhs),rhsMax =   1.83978808750151E-13  7.99210789567333E-04
(PID.TID 0000.0001)                    cg2d_init_res =    9.05372707833893E-02
(PID.TID 0000.0001)                       cg2d_iters =    74
(PID.TID 0000.0001)                         cg2d_res =    8.76631533761187E-12
(PID.TID 0000.0001) // =======================================================
(PID.TID 0000.0001) // Begin MONITOR dynamic field statistics
(PID.TID 0000.0001) // =======================================================
(PID.TID 0000.0001) %MON time_tsnumber                =                    62
(PID.TID 0000.0001) %MON time_secondsf                =   7.4400000000000E+04
(PID.TID 0000.0001) %MON dynstat_eta_max              =   4.0204761286632E-04
(PID.TID 0000.0001) %MON dynstat_eta_min              =  -4.1345836021734E-04
(PID.TID 0000.0001) %MON dynstat_eta_mean             =  -1.5138554763650E-17
(PID.TID 0000.0001) %MON dynstat_eta_sd               =   3.7335843995058E-04
(PID.TID 0000.0001) %MON dynstat_eta_del2             =   3.8611880118641E-06
(PID.TID 0000.0001) %MON dynstat_uvel_max             =   1.6283215850077E-02
(PID.TID 0000.0001) %MON dynstat_uvel_min             =  -1.6284922211735E-02
(PID.TID 0000.0001) %MON dynstat_uvel_mean            =  -9.1499257688446E-07
(PID.TID 0000.0001) %MON dynstat_uvel_sd              =   3.3351128052160E-03
(PID.TID 0000.0001) %MON dynstat_uvel_del2            =   1.6906539590833E-04
(PID.TID 0000.0001) %MON dynstat_vvel_max             =   7.9147460189193E-03
(PID.TID 0000.0001) %MON dynstat_vvel_min             =  -7.9125939344078E-03
(PID.TID 0000.0001) %MON dynstat_vvel_mean            =  -1.4009491760955E-10
(PID.TID 0000.0001) %MON dynstat_vvel_sd              =   2.7167481617094E-03
(PID.TID 0000.0001) %MON dynstat_vvel_del2            =   1.1661964573441E-04
(PID.TID 0000.0001) %MON dynstat_wvel_max             =   1.5672129411536E-04
(PID.TID 0000.0001) %MON dynstat_wvel_min             =  -1.5680337595162E-04
(PID.TID 0000.0001) %MON dynstat_wvel_mean            =   1.9370094475756E-21
(PID.TID 0000.0001) %MON dynstat_wvel_sd              =   5.2295870003192E-05
(PID.TID 0000.0001) %MON dynstat_wvel_del2            =   7.0557437388223E-06
(PID.TID 0000.0001) %MON dynstat_theta_max            =   1.7020391872684E+01
(PID.TID 0000.0001) %MON dynstat_theta_min            =   1.6979608189003E+01
(PID.TID 0000.0001) %MON dynstat_theta_mean           =   1.6999999916873E+01
(PID.TID 0000.0001) %MON dynstat_theta_sd             =   1.8679436333682E-02
(PID.TID 0000.0001) %MON dynstat_theta_del2           =   1.9624289892425E-04
(PID.TID 0000.0001) %MON dynstat_salt_max             =   1.7020387109310E+01
(PID.TID 0000.0001) %MON dynstat_salt_min             =   1.6979612982850E+01
(PID.TID 0000.0001) %MON dynstat_salt_mean            =   1.7000000005832E+01
(PID.TID 0000.0001) %MON dynstat_salt_sd              =   1.8680783945044E-02
(PID.TID 0000.0001) %MON dynstat_salt_del2            =   2.0526440685769E-04
(PID.TID 0000.0001) %MON advcfl_uvel_max              =   1.9541906654081E-02
(PID.TID 0000.0001) %MON advcfl_vvel_max              =   9.4976952227031E-03
(PID.TID 0000.0001) %MON advcfl_wvel_max              =   3.7632810228389E-02
(PID.TID 0000.0001) %MON advcfl_W_hf_max              =   3.7632810228389E-02
(PID.TID 0000.0001) %MON pe_b_mean                    =   3.4186997678341E-09
(PID.TID 0000.0001) %MON ke_max                       =   1.4348236277566E-04
(PID.TID 0000.0001) %MON ke_mean                      =   9.1042350059563E-06
(PID.TID 0000.0001) %MON ke_vol                       =   2.5000000000000E+11
(PID.TID 0000.0001) %MON vort_r_min                   =  -6.9038540615380E-06
(PID.TID 0000.0001) %MON vort_r_max                   =   7.0590396265149E-06
(PID.TID 0000.0001) %MON vort_a_mean                  =   7.2900000000000E-05
(PID.TID 0000.0001) %MON vort_a_sd                    =   1.7101901040737E-06
(PID.TID 0000.0001) %MON vort_p_mean                  =   7.7363265306122E-05
(PID.TID 0000.0001) %MON vort_p_sd                    =   3.0972572170622E-05
(PID.TID 0000.0001) %MON surfExpan_theta_mean         =  -5.0211243985565E-14
(PID.TID 0000.0001) %MON surfExpan_salt_mean          =  -5.3748614052774E-17
(PID.TID 0000.0001) // =======================================================
(PID.TID 0000.0001) // End MONITOR dynamic field statistics
(PID.TID 0000.0001) // =======================================================
 cg2d: Sum(rhs),rhsMax =   1.22386259113205E-13  8.00228033580751E-04
(PID.TID 0000.0001)                    cg2d_init_res =    8.13826755284544E-02
(PID.TID 0000.0001)                       cg2d_iters =    74
(PID.TID 0000.0001)                         cg2d_res =    8.57152627776103E-12
(PID.TID 0000.0001) // =======================================================
(PID.TID 0000.0001) // Begin MONITOR dynamic field statistics
(PID.TID 0000.0001) // =======================================================
(PID.TID 0000.0001) %MON time_tsnumber                =                    63
(PID.TID 0000.0001) %MON time_secondsf                =   7.5600000000000E+04
(PID.TID 0000.0001) %MON dynstat_eta_max              =   4.0206276359326E-04
(PID.TID 0000.0001) %MON dynstat_eta_min              =  -4.1344321464697E-04
(PID.TID 0000.0001) %MON dynstat_eta_mean             =  -1.2948885639297E-17
(PID.TID 0000.0001) %MON dynstat_eta_sd               =   3.7336467510956E-04
(PID.TID 0000.0001) %MON dynstat_eta_del2             =   3.8600596785851E-06
(PID.TID 0000.0001) %MON dynstat_uvel_max             =   1.5555952975301E-02
(PID.TID 0000.0001) %MON dynstat_uvel_min             =  -1.5557690147873E-02
(PID.TID 0000.0001) %MON dynstat_uvel_mean            =  -9.1499795262870E-07
(PID.TID 0000.0001) %MON dynstat_uvel_sd              =   3.1557586430904E-03
(PID.TID 0000.0001) %MON dynstat_uvel_del2            =   1.6807192661261E-04
(PID.TID 0000.0001) %MON dynstat_vvel_max             =   7.4069552364694E-03
(PID.TID 0000.0001) %MON dynstat_vvel_min             =  -7.4047728901759E-03
(PID.TID 0000.0001) %MON dynstat_vvel_mean            =  -1.2535541658906E-10
(PID.TID 0000.0001) %MON dynstat_vvel_sd              =   2.5134734289940E-03
(PID.TID 0000.0001) %MON dynstat_vvel_del2            =   1.1553430683382E-04
(PID.TID 0000.0001) %MON dynstat_wvel_max             =   1.4999090118209E-04
(PID.TID 0000.0001) %MON dynstat_wvel_min             =  -1.5007318988023E-04
(PID.TID 0000.0001) %MON dynstat_wvel_mean            =  -8.2878078672639E-22
(PID.TID 0000.0001) %MON dynstat_wvel_sd              =   5.0566513423851E-05
(PID.TID 0000.0001) %MON dynstat_wvel_del2            =   7.0519481910583E-06
(PID.TID 0000.0001) %MON dynstat_theta_max            =   1.7020391872684E+01
(PID.TID 0000.0001) %MON dynstat_theta_min            =   1.6979608189006E+01
(PID.TID 0000.0001) %MON dynstat_theta_mean           =   1.6999999916873E+01
(PID.TID 0000.0001) %MON dynstat_theta_sd             =   1.8679390630505E-02
(PID.TID 0000.0001) %MON dynstat_theta_del2           =   1.9626023359440E-04
(PID.TID 0000.0001) %MON dynstat_salt_max             =   1.7020387109310E+01
(PID.TID 0000.0001) %MON dynstat_salt_min             =   1.6979612982850E+01
(PID.TID 0000.0001) %MON dynstat_salt_mean            =   1.7000000005832E+01
(PID.TID 0000.0001) %MON dynstat_salt_sd              =   1.8680742748701E-02
(PID.TID 0000.0001) %MON dynstat_salt_del2            =   2.0576020922334E-04
(PID.TID 0000.0001) %MON advcfl_uvel_max              =   1.8669228177448E-02
(PID.TID 0000.0001) %MON advcfl_vvel_max              =   8.8883462837633E-03
(PID.TID 0000.0001) %MON advcfl_wvel_max              =   3.6017565571255E-02
(PID.TID 0000.0001) %MON advcfl_W_hf_max              =   3.6017565571255E-02
(PID.TID 0000.0001) %MON pe_b_mean                    =   3.4188139546974E-09
(PID.TID 0000.0001) %MON ke_max                       =   1.2918234673285E-04
(PID.TID 0000.0001) %MON ke_mean                      =   8.0118300908948E-06
(PID.TID 0000.0001) %MON ke_vol                       =   2.5000000000000E+11
(PID.TID 0000.0001) %MON vort_r_min                   =  -6.7929949164481E-06
(PID.TID 0000.0001) %MON vort_r_max                   =   6.8925052595862E-06
(PID.TID 0000.0001) %MON vort_a_mean                  =   7.2900000000000E-05
(PID.TID 0000.0001) %MON vort_a_sd                    =   1.6722650769259E-06
(PID.TID 0000.0001) %MON vort_p_mean                  =   7.7363265306122E-05
(PID.TID 0000.0001) %MON vort_p_sd                    =   3.0970376736776E-05
(PID.TID 0000.0001) %MON surfExpan_theta_mean         =  -3.0648372207305E-14
(PID.TID 0000.0001) %MON surfExpan_salt_mean          =  -4.3302561476041E-17
(PID.TID 0000.0001) // =======================================================
(PID.TID 0000.0001) // End MONITOR dynamic field statistics
(PID.TID 0000.0001) // =======================================================
 cg2d: Sum(rhs),rhsMax =   1.03401336971898E-13  8.00667184604247E-04
(PID.TID 0000.0001)                    cg2d_init_res =    6.68546144256565E-02
(PID.TID 0000.0001)                       cg2d_iters =    73
(PID.TID 0000.0001)                         cg2d_res =    8.92669476393939E-12
(PID.TID 0000.0001) // =======================================================
(PID.TID 0000.0001) // Begin MONITOR dynamic field statistics
(PID.TID 0000.0001) // =======================================================
(PID.TID 0000.0001) %MON time_tsnumber                =                    64
(PID.TID 0000.0001) %MON time_secondsf                =   7.6800000000000E+04
(PID.TID 0000.0001) %MON dynstat_eta_max              =   4.0206364531251E-04
(PID.TID 0000.0001) %MON dynstat_eta_min              =  -4.1344233892116E-04
(PID.TID 0000.0001) %MON dynstat_eta_mean             =  -1.9694052253993E-17
(PID.TID 0000.0001) %MON dynstat_eta_sd               =   3.7337052118373E-04
(PID.TID 0000.0001) %MON dynstat_eta_del2             =   3.8588913663200E-06
(PID.TID 0000.0001) %MON dynstat_uvel_max             =   1.4890666277508E-02
(PID.TID 0000.0001) %MON dynstat_uvel_min             =  -1.4892431969193E-02
(PID.TID 0000.0001) %MON dynstat_uvel_mean            =  -9.1500274347609E-07
(PID.TID 0000.0001) %MON dynstat_uvel_sd              =   2.9974505024472E-03
(PID.TID 0000.0001) %MON dynstat_uvel_del2            =   1.6726173014504E-04
(PID.TID 0000.0001) %MON dynstat_vvel_max             =   6.8631402501384E-03
(PID.TID 0000.0001) %MON dynstat_vvel_min             =  -6.8609695147645E-03
(PID.TID 0000.0001) %MON dynstat_vvel_mean            =  -1.1007803866758E-10
(PID.TID 0000.0001) %MON dynstat_vvel_sd              =   2.2939701019425E-03
(PID.TID 0000.0001) %MON dynstat_vvel_del2            =   1.1437640897225E-04
(PID.TID 0000.0001) %MON dynstat_wvel_max             =   1.4260881395631E-04
(PID.TID 0000.0001) %MON dynstat_wvel_min             =  -1.4269037119777E-04
(PID.TID 0000.0001) %MON dynstat_wvel_mean            =  -2.7556911836386E-22
(PID.TID 0000.0001) %MON dynstat_wvel_sd              =   4.8800359154772E-05
(PID.TID 0000.0001) %MON dynstat_wvel_del2            =   7.0477478297162E-06
(PID.TID 0000.0001) %MON dynstat_theta_max            =   1.7020391872684E+01
(PID.TID 0000.0001) %MON dynstat_theta_min            =   1.6979608189010E+01
(PID.TID 0000.0001) %MON dynstat_theta_mean           =   1.6999999916873E+01
(PID.TID 0000.0001) %MON dynstat_theta_sd             =   1.8679349326544E-02
(PID.TID 0000.0001) %MON dynstat_theta_del2           =   1.9627966741217E-04
(PID.TID 0000.0001) %MON dynstat_salt_max             =   1.7020387109310E+01
(PID.TID 0000.0001) %MON dynstat_salt_min             =   1.6979612982850E+01
(PID.TID 0000.0001) %MON dynstat_salt_mean            =   1.7000000005832E+01
(PID.TID 0000.0001) %MON dynstat_salt_sd              =   1.8680697176181E-02
(PID.TID 0000.0001) %MON dynstat_salt_del2            =   2.0602008179239E-04
(PID.TID 0000.0001) %MON advcfl_uvel_max              =   1.7870918363031E-02
(PID.TID 0000.0001) %MON advcfl_vvel_max              =   8.2357683001660E-03
(PID.TID 0000.0001) %MON advcfl_wvel_max              =   3.4245689087465E-02
(PID.TID 0000.0001) %MON advcfl_W_hf_max              =   3.4245689087465E-02
(PID.TID 0000.0001) %MON pe_b_mean                    =   3.4189210178330E-09
(PID.TID 0000.0001) %MON ke_max                       =   1.1655146079422E-04
(PID.TID 0000.0001) %MON ke_mean                      =   7.0182586136562E-06
(PID.TID 0000.0001) %MON ke_vol                       =   2.5000000000000E+11
(PID.TID 0000.0001) %MON vort_r_min                   =  -6.6909694503872E-06
(PID.TID 0000.0001) %MON vort_r_max                   =   6.7396582992999E-06
(PID.TID 0000.0001) %MON vort_a_mean                  =   7.2900000000000E-05
(PID.TID 0000.0001) %MON vort_a_sd                    =   1.6383506225960E-06
(PID.TID 0000.0001) %MON vort_p_mean                  =   7.7363265306122E-05
(PID.TID 0000.0001) %MON vort_p_sd                    =   3.0968455544985E-05
(PID.TID 0000.0001) %MON surfExpan_theta_mean         =  -1.5469264652069E-14
(PID.TID 0000.0001) %MON surfExpan_salt_mean          =  -4.0657437552336E-17
(PID.TID 0000.0001) // =======================================================
(PID.TID 0000.0001) // End MONITOR dynamic field statistics
(PID.TID 0000.0001) // =======================================================
 cg2d: Sum(rhs),rhsMax =   2.04606188762557E-13  8.00919392512594E-04
(PID.TID 0000.0001)                    cg2d_init_res =    5.98023810875224E-02
(PID.TID 0000.0001)                       cg2d_iters =    73
(PID.TID 0000.0001)                         cg2d_res =    8.58888366587614E-12
(PID.TID 0000.0001) // =======================================================
(PID.TID 0000.0001) // Begin MONITOR dynamic field statistics
(PID.TID 0000.0001) // =======================================================
(PID.TID 0000.0001) %MON time_tsnumber                =                    65
(PID.TID 0000.0001) %MON time_secondsf                =   7.8000000000000E+04
(PID.TID 0000.0001) %MON dynstat_eta_max              =   4.0205101064503E-04
(PID.TID 0000.0001) %MON dynstat_eta_min              =  -4.1345498005498E-04
(PID.TID 0000.0001) %MON dynstat_eta_mean             =  -2.6371645289180E-17
(PID.TID 0000.0001) %MON dynstat_eta_sd               =   3.7337577333620E-04
(PID.TID 0000.0001) %MON dynstat_eta_del2             =   3.8576683752946E-06
(PID.TID 0000.0001) %MON dynstat_uvel_max             =   1.4291398037224E-02
(PID.TID 0000.0001) %MON dynstat_uvel_min             =  -1.4293189692172E-02
(PID.TID 0000.0001) %MON dynstat_uvel_mean            =  -9.1500680978956E-07
(PID.TID 0000.0001) %MON dynstat_uvel_sd              =   2.8602351425133E-03
(PID.TID 0000.0001) %MON dynstat_uvel_del2            =   1.6663878165142E-04
(PID.TID 0000.0001) %MON dynstat_vvel_max             =   6.2837789754649E-03
(PID.TID 0000.0001) %MON dynstat_vvel_min             =  -6.2815625745483E-03
(PID.TID 0000.0001) %MON dynstat_vvel_mean            =  -9.4408621150496E-11
(PID.TID 0000.0001) %MON dynstat_vvel_sd              =   2.0610599964507E-03
(PID.TID 0000.0001) %MON dynstat_vvel_del2            =   1.1315893006592E-04
(PID.TID 0000.0001) %MON dynstat_wvel_max             =   1.3464023944342E-04
(PID.TID 0000.0001) %MON dynstat_wvel_min             =  -1.3472064256974E-04
(PID.TID 0000.0001) %MON dynstat_wvel_mean            =   7.6410482443136E-23
(PID.TID 0000.0001) %MON dynstat_wvel_sd              =   4.7060282974598E-05
(PID.TID 0000.0001) %MON dynstat_wvel_del2            =   7.0430658561943E-06
(PID.TID 0000.0001) %MON dynstat_theta_max            =   1.7020391872684E+01
(PID.TID 0000.0001) %MON dynstat_theta_min            =   1.6979608189013E+01
(PID.TID 0000.0001) %MON dynstat_theta_mean           =   1.6999999916873E+01
(PID.TID 0000.0001) %MON dynstat_theta_sd             =   1.8679312682887E-02
(PID.TID 0000.0001) %MON dynstat_theta_del2           =   1.9630153350702E-04
(PID.TID 0000.0001) %MON dynstat_salt_max             =   1.7020387109310E+01
(PID.TID 0000.0001) %MON dynstat_salt_min             =   1.6979612982850E+01
(PID.TID 0000.0001) %MON dynstat_salt_mean            =   1.7000000005832E+01
(PID.TID 0000.0001) %MON dynstat_salt_sd              =   1.8680654226504E-02
(PID.TID 0000.0001) %MON dynstat_salt_del2            =   2.0621316844343E-04
(PID.TID 0000.0001) %MON advcfl_uvel_max              =   1.7151827630607E-02
(PID.TID 0000.0001) %MON advcfl_vvel_max              =   7.5405347705579E-03
(PID.TID 0000.0001) %MON advcfl_wvel_max              =   3.2332954216738E-02
(PID.TID 0000.0001) %MON advcfl_W_hf_max              =   3.2332954216738E-02
(PID.TID 0000.0001) %MON pe_b_mean                    =   3.4190172055057E-09
(PID.TID 0000.0001) %MON ke_max                       =   1.0565456400493E-04
(PID.TID 0000.0001) %MON ke_mean                      =   6.1294977421581E-06
(PID.TID 0000.0001) %MON ke_vol                       =   2.5000000000000E+11
(PID.TID 0000.0001) %MON vort_r_min                   =  -6.5981278351248E-06
(PID.TID 0000.0001) %MON vort_r_max                   =   6.6012994054623E-06
(PID.TID 0000.0001) %MON vort_a_mean                  =   7.2900000000000E-05
(PID.TID 0000.0001) %MON vort_a_sd                    =   1.6084068927717E-06
(PID.TID 0000.0001) %MON vort_p_mean                  =   7.7363265306122E-05
(PID.TID 0000.0001) %MON vort_p_sd                    =   3.0966792482271E-05
(PID.TID 0000.0001) %MON surfExpan_theta_mean         =  -6.7386166516113E-15
(PID.TID 0000.0001) %MON surfExpan_salt_mean          =  -1.5152206571066E-17
(PID.TID 0000.0001) // =======================================================
(PID.TID 0000.0001) // End MONITOR dynamic field statistics
(PID.TID 0000.0001) // =======================================================
 cg2d: Sum(rhs),rhsMax =   2.00273228990328E-13  8.01083122347468E-04
(PID.TID 0000.0001)                    cg2d_init_res =    5.40357790543350E-02
(PID.TID 0000.0001)                       cg2d_iters =    74
(PID.TID 0000.0001)                         cg2d_res =    8.33861798936778E-12
(PID.TID 0000.0001) // =======================================================
(PID.TID 0000.0001) // Begin MONITOR dynamic field statistics
(PID.TID 0000.0001) // =======================================================
(PID.TID 0000.0001) %MON time_tsnumber                =                    66
(PID.TID 0000.0001) %MON time_secondsf                =   7.9200000000000E+04
(PID.TID 0000.0001) %MON dynstat_eta_max              =   4.0202775982420E-04
(PID.TID 0000.0001) %MON dynstat_eta_min              =  -4.1347823740599E-04
(PID.TID 0000.0001) %MON dynstat_eta_mean             =  -2.0022030801092E-17
(PID.TID 0000.0001) %MON dynstat_eta_sd               =   3.7338026752371E-04
(PID.TID 0000.0001) %MON dynstat_eta_del2             =   3.8563757676199E-06
(PID.TID 0000.0001) %MON dynstat_uvel_max             =   1.3761658075898E-02
(PID.TID 0000.0001) %MON dynstat_uvel_min             =  -1.3763472924415E-02
(PID.TID 0000.0001) %MON dynstat_uvel_mean            =  -9.1500998612198E-07
(PID.TID 0000.0001) %MON dynstat_uvel_sd              =   2.7436485154660E-03
(PID.TID 0000.0001) %MON dynstat_uvel_del2            =   1.6612834231842E-04
(PID.TID 0000.0001) %MON dynstat_vvel_max             =   5.6720649445902E-03
(PID.TID 0000.0001) %MON dynstat_vvel_min             =  -5.6697964554296E-03
(PID.TID 0000.0001) %MON dynstat_vvel_mean            =  -7.8567710378861E-11
(PID.TID 0000.0001) %MON dynstat_vvel_sd              =   1.8182519377905E-03
(PID.TID 0000.0001) %MON dynstat_vvel_del2            =   1.1196734583800E-04
(PID.TID 0000.0001) %MON dynstat_wvel_max             =   1.2615248863781E-04
(PID.TID 0000.0001) %MON dynstat_wvel_min             =  -1.2623146450909E-04
(PID.TID 0000.0001) %MON dynstat_wvel_mean            =  -9.7796445624476E-22
(PID.TID 0000.0001) %MON dynstat_wvel_sd              =   4.5415392960339E-05
(PID.TID 0000.0001) %MON dynstat_wvel_del2            =   7.0381742413858E-06
(PID.TID 0000.0001) %MON dynstat_theta_max            =   1.7020391872684E+01
(PID.TID 0000.0001) %MON dynstat_theta_min            =   1.6979608189016E+01
(PID.TID 0000.0001) %MON dynstat_theta_mean           =   1.6999999916873E+01
(PID.TID 0000.0001) %MON dynstat_theta_sd             =   1.8679280968961E-02
(PID.TID 0000.0001) %MON dynstat_theta_del2           =   1.9632606286182E-04
(PID.TID 0000.0001) %MON dynstat_salt_max             =   1.7020387109310E+01
(PID.TID 0000.0001) %MON dynstat_salt_min             =   1.6979612982850E+01
(PID.TID 0000.0001) %MON dynstat_salt_mean            =   1.7000000005832E+01
(PID.TID 0000.0001) %MON dynstat_salt_sd              =   1.8680614038583E-02
(PID.TID 0000.0001) %MON dynstat_salt_del2            =   2.0638499718346E-04
(PID.TID 0000.0001) %MON advcfl_uvel_max              =   1.6516167509299E-02
(PID.TID 0000.0001) %MON advcfl_vvel_max              =   6.8064779335082E-03
(PID.TID 0000.0001) %MON advcfl_wvel_max              =   3.0295551482182E-02
(PID.TID 0000.0001) %MON advcfl_W_hf_max              =   3.0295551482182E-02
(PID.TID 0000.0001) %MON pe_b_mean                    =   3.4190995129182E-09
(PID.TID 0000.0001) %MON ke_max                       =   9.6544986704202E-05
(PID.TID 0000.0001) %MON ke_mean                      =   5.3507032592848E-06
(PID.TID 0000.0001) %MON ke_vol                       =   2.5000000000000E+11
(PID.TID 0000.0001) %MON vort_r_min                   =  -6.5147344424379E-06
(PID.TID 0000.0001) %MON vort_r_max                   =   6.4781308782755E-06
(PID.TID 0000.0001) %MON vort_a_mean                  =   7.2900000000000E-05
(PID.TID 0000.0001) %MON vort_a_sd                    =   1.5823449760710E-06
(PID.TID 0000.0001) %MON vort_p_mean                  =   7.7363265306122E-05
(PID.TID 0000.0001) %MON vort_p_sd                    =   3.0965370559487E-05
(PID.TID 0000.0001) %MON surfExpan_theta_mean         =  -2.9445213904849E-15
(PID.TID 0000.0001) %MON surfExpan_salt_mean          =  -2.5748243784578E-17
(PID.TID 0000.0001) // =======================================================
(PID.TID 0000.0001) // End MONITOR dynamic field statistics
(PID.TID 0000.0001) // =======================================================
 cg2d: Sum(rhs),rhsMax =   1.20335490703949E-13  8.01198588559272E-04
(PID.TID 0000.0001)                    cg2d_init_res =    4.85822738885229E-02
(PID.TID 0000.0001)                       cg2d_iters =    73
(PID.TID 0000.0001)                         cg2d_res =    6.69231353583771E-12
(PID.TID 0000.0001) // =======================================================
(PID.TID 0000.0001) // Begin MONITOR dynamic field statistics
(PID.TID 0000.0001) // =======================================================
(PID.TID 0000.0001) %MON time_tsnumber                =                    67
(PID.TID 0000.0001) %MON time_secondsf                =   8.0400000000000E+04
(PID.TID 0000.0001) %MON dynstat_eta_max              =   4.0199717821262E-04
(PID.TID 0000.0001) %MON dynstat_eta_min              =  -4.1350882561864E-04
(PID.TID 0000.0001) %MON dynstat_eta_mean             =  -8.4238548558879E-18
(PID.TID 0000.0001) %MON dynstat_eta_sd               =   3.7338386017084E-04
(PID.TID 0000.0001) %MON dynstat_eta_del2             =   3.8550016160746E-06
(PID.TID 0000.0001) %MON dynstat_uvel_max             =   1.3304401859373E-02
(PID.TID 0000.0001) %MON dynstat_uvel_min             =  -1.3306236931453E-02
(PID.TID 0000.0001) %MON dynstat_uvel_mean            =  -9.1501218891376E-07
(PID.TID 0000.0001) %MON dynstat_uvel_sd              =   2.6467791992649E-03
(PID.TID 0000.0001) %MON dynstat_uvel_del2            =   1.6575234902569E-04
(PID.TID 0000.0001) %MON dynstat_vvel_max             =   5.0327750282122E-03
(PID.TID 0000.0001) %MON dynstat_vvel_min             =  -5.0304497116629E-03
(PID.TID 0000.0001) %MON dynstat_vvel_mean            =  -6.2620613615267E-11
(PID.TID 0000.0001) %MON dynstat_vvel_sd              =   1.5702025748724E-03
(PID.TID 0000.0001) %MON dynstat_vvel_del2            =   1.1079161299398E-04
(PID.TID 0000.0001) %MON dynstat_wvel_max             =   1.1724951651400E-04
(PID.TID 0000.0001) %MON dynstat_wvel_min             =  -1.1732427558709E-04
(PID.TID 0000.0001) %MON dynstat_wvel_mean            =   1.0427091739239E-22
(PID.TID 0000.0001) %MON dynstat_wvel_sd              =   4.3939172299124E-05
(PID.TID 0000.0001) %MON dynstat_wvel_del2            =   7.0332141534091E-06
(PID.TID 0000.0001) %MON dynstat_theta_max            =   1.7020391872684E+01
(PID.TID 0000.0001) %MON dynstat_theta_min            =   1.6979608189018E+01
(PID.TID 0000.0001) %MON dynstat_theta_mean           =   1.6999999916873E+01
(PID.TID 0000.0001) %MON dynstat_theta_sd             =   1.8679254385864E-02
(PID.TID 0000.0001) %MON dynstat_theta_del2           =   1.9635339106034E-04
(PID.TID 0000.0001) %MON dynstat_salt_max             =   1.7020387109310E+01
(PID.TID 0000.0001) %MON dynstat_salt_min             =   1.6979612982850E+01
(PID.TID 0000.0001) %MON dynstat_salt_mean            =   1.7000000005832E+01
(PID.TID 0000.0001) %MON dynstat_salt_sd              =   1.8680571610907E-02
(PID.TID 0000.0001) %MON dynstat_salt_del2            =   2.0658515226548E-04
(PID.TID 0000.0001) %MON advcfl_uvel_max              =   1.5967484317744E-02
(PID.TID 0000.0001) %MON advcfl_vvel_max              =   6.0393300338546E-03
(PID.TID 0000.0001) %MON advcfl_wvel_max              =   2.8157826140902E-02
(PID.TID 0000.0001) %MON advcfl_W_hf_max              =   2.8157826140902E-02
(PID.TID 0000.0001) %MON pe_b_mean                    =   3.4191653100598E-09
(PID.TID 0000.0001) %MON ke_max                       =   8.9259388528444E-05
(PID.TID 0000.0001) %MON ke_mean                      =   4.6861778239995E-06
(PID.TID 0000.0001) %MON ke_vol                       =   2.5000000000000E+11
(PID.TID 0000.0001) %MON vort_r_min                   =  -6.4409904016954E-06
(PID.TID 0000.0001) %MON vort_r_max                   =   6.3707345416307E-06
(PID.TID 0000.0001) %MON vort_a_mean                  =   7.2900000000000E-05
(PID.TID 0000.0001) %MON vort_a_sd                    =   1.5600380167049E-06
(PID.TID 0000.0001) %MON vort_p_mean                  =   7.7363265306123E-05
(PID.TID 0000.0001) %MON vort_p_sd                    =   3.0964172642357E-05
(PID.TID 0000.0001) %MON surfExpan_theta_mean         =  -3.4263160458094E-15
(PID.TID 0000.0001) %MON surfExpan_salt_mean          =  -1.6497058328269E-17
(PID.TID 0000.0001) // =======================================================
(PID.TID 0000.0001) // End MONITOR dynamic field statistics
(PID.TID 0000.0001) // =======================================================
 cg2d: Sum(rhs),rhsMax =   3.51928230481191E-14  8.01309669733276E-04
(PID.TID 0000.0001)                    cg2d_init_res =    4.33523137657149E-02
(PID.TID 0000.0001)                       cg2d_iters =    73
(PID.TID 0000.0001)                         cg2d_res =    6.10430851195063E-12
(PID.TID 0000.0001) // =======================================================
(PID.TID 0000.0001) // Begin MONITOR dynamic field statistics
(PID.TID 0000.0001) // =======================================================
(PID.TID 0000.0001) %MON time_tsnumber                =                    68
(PID.TID 0000.0001) %MON time_secondsf                =   8.1600000000000E+04
(PID.TID 0000.0001) %MON dynstat_eta_max              =   4.0196255989961E-04
(PID.TID 0000.0001) %MON dynstat_eta_min              =  -4.1354345114244E-04
(PID.TID 0000.0001) %MON dynstat_eta_mean             =  -1.7864344273866E-17
(PID.TID 0000.0001) %MON dynstat_eta_sd               =   3.7338642020563E-04
(PID.TID 0000.0001) %MON dynstat_eta_del2             =   3.8535461340608E-06
(PID.TID 0000.0001) %MON dynstat_uvel_max             =   1.2922015764033E-02
(PID.TID 0000.0001) %MON dynstat_uvel_min             =  -1.2923867905189E-02
(PID.TID 0000.0001) %MON dynstat_uvel_mean            =  -9.1501335647708E-07
(PID.TID 0000.0001) %MON dynstat_uvel_sd              =   2.5683895737338E-03
(PID.TID 0000.0001) %MON dynstat_uvel_del2            =   1.6542949851148E-04
(PID.TID 0000.0001) %MON dynstat_vvel_max             =   4.3708564291702E-03
(PID.TID 0000.0001) %MON dynstat_vvel_min             =  -4.3684683804591E-03
(PID.TID 0000.0001) %MON dynstat_vvel_mean            =  -4.6591623336104E-11
(PID.TID 0000.0001) %MON dynstat_vvel_sd              =   1.3236862574193E-03
(PID.TID 0000.0001) %MON dynstat_vvel_del2            =   1.0967644346514E-04
(PID.TID 0000.0001) %MON dynstat_wvel_max             =   1.1625171172219E-04
(PID.TID 0000.0001) %MON dynstat_wvel_min             =  -1.1639109438761E-04
(PID.TID 0000.0001) %MON dynstat_wvel_mean            =  -4.8891072171077E-22
(PID.TID 0000.0001) %MON dynstat_wvel_sd              =   4.2705682753900E-05
(PID.TID 0000.0001) %MON dynstat_wvel_del2            =   7.0283396199560E-06
(PID.TID 0000.0001) %MON dynstat_theta_max            =   1.7020391872684E+01
(PID.TID 0000.0001) %MON dynstat_theta_min            =   1.6979608189021E+01
(PID.TID 0000.0001) %MON dynstat_theta_mean           =   1.6999999916873E+01
(PID.TID 0000.0001) %MON dynstat_theta_sd             =   1.8679232184891E-02
(PID.TID 0000.0001) %MON dynstat_theta_del2           =   1.9638190272553E-04
(PID.TID 0000.0001) %MON dynstat_salt_max             =   1.7020387109310E+01
(PID.TID 0000.0001) %MON dynstat_salt_min             =   1.6979612982850E+01
(PID.TID 0000.0001) %MON dynstat_salt_mean            =   1.7000000005832E+01
(PID.TID 0000.0001) %MON dynstat_salt_sd              =   1.8680497268831E-02
(PID.TID 0000.0001) %MON dynstat_salt_del2            =   2.0691953267951E-04
(PID.TID 0000.0001) %MON advcfl_uvel_max              =   1.5508641486226E-02
(PID.TID 0000.0001) %MON advcfl_vvel_max              =   5.2450277150043E-03
(PID.TID 0000.0001) %MON advcfl_wvel_max              =   2.7933862653026E-02
(PID.TID 0000.0001) %MON advcfl_W_hf_max              =   2.7933862653026E-02
(PID.TID 0000.0001) %MON pe_b_mean                    =   3.4192121959223E-09
(PID.TID 0000.0001) %MON ke_max                       =   8.3821315675699E-05
(PID.TID 0000.0001) %MON ke_mean                      =   4.1393426677357E-06
(PID.TID 0000.0001) %MON ke_vol                       =   2.5000000000000E+11
(PID.TID 0000.0001) %MON vort_r_min                   =  -6.3770334108620E-06
(PID.TID 0000.0001) %MON vort_r_max                   =   6.2795709553005E-06
(PID.TID 0000.0001) %MON vort_a_mean                  =   7.2900000000000E-05
(PID.TID 0000.0001) %MON vort_a_sd                    =   1.5413339983023E-06
(PID.TID 0000.0001) %MON vort_p_mean                  =   7.7363265306122E-05
(PID.TID 0000.0001) %MON vort_p_sd                    =   3.0963182131088E-05
(PID.TID 0000.0001) %MON surfExpan_theta_mean         =  -7.7302744537839E-15
(PID.TID 0000.0001) %MON surfExpan_salt_mean          =  -1.9588720724444E-17
(PID.TID 0000.0001) // =======================================================
(PID.TID 0000.0001) // End MONITOR dynamic field statistics
(PID.TID 0000.0001) // =======================================================
 cg2d: Sum(rhs),rhsMax =   6.81963166493382E-14  8.01387632884112E-04
(PID.TID 0000.0001)                    cg2d_init_res =    3.83038180675876E-02
(PID.TID 0000.0001)                       cg2d_iters =    73
(PID.TID 0000.0001)                         cg2d_res =    6.24703054769573E-12
(PID.TID 0000.0001) // =======================================================
(PID.TID 0000.0001) // Begin MONITOR dynamic field statistics
(PID.TID 0000.0001) // =======================================================
(PID.TID 0000.0001) %MON time_tsnumber                =                    69
(PID.TID 0000.0001) %MON time_secondsf                =   8.2800000000000E+04
(PID.TID 0000.0001) %MON dynstat_eta_max              =   4.0192628985900E-04
(PID.TID 0000.0001) %MON dynstat_eta_min              =  -4.1357972868806E-04
(PID.TID 0000.0001) %MON dynstat_eta_mean             =  -7.2626971642231E-18
(PID.TID 0000.0001) %MON dynstat_eta_sd               =   3.7338783100425E-04
(PID.TID 0000.0001) %MON dynstat_eta_del2             =   3.8519562145505E-06
(PID.TID 0000.0001) %MON dynstat_uvel_max             =   1.2616304988005E-02
(PID.TID 0000.0001) %MON dynstat_uvel_min             =  -1.2618170954198E-02
(PID.TID 0000.0001) %MON dynstat_uvel_mean            =  -9.1501343622583E-07
(PID.TID 0000.0001) %MON dynstat_uvel_sd              =   2.5070825607599E-03
(PID.TID 0000.0001) %MON dynstat_uvel_del2            =   1.6515275106827E-04
(PID.TID 0000.0001) %MON dynstat_vvel_max             =   3.7043469286154E-03
(PID.TID 0000.0001) %MON dynstat_vvel_min             =  -3.7019627331797E-03
(PID.TID 0000.0001) %MON dynstat_vvel_mean            =  -3.0437896499896E-11
(PID.TID 0000.0001) %MON dynstat_vvel_sd              =   1.0897149169884E-03
(PID.TID 0000.0001) %MON dynstat_vvel_del2            =   1.0868973851008E-04
(PID.TID 0000.0001) %MON dynstat_wvel_max             =   1.2064001800588E-04
(PID.TID 0000.0001) %MON dynstat_wvel_min             =  -1.2077691323013E-04
(PID.TID 0000.0001) %MON dynstat_wvel_mean            =  -7.4119932945458E-22
(PID.TID 0000.0001) %MON dynstat_wvel_sd              =   4.1784969738198E-05
(PID.TID 0000.0001) %MON dynstat_wvel_del2            =   7.0234206022248E-06
(PID.TID 0000.0001) %MON dynstat_theta_max            =   1.7020391872684E+01
(PID.TID 0000.0001) %MON dynstat_theta_min            =   1.6979608189022E+01
(PID.TID 0000.0001) %MON dynstat_theta_mean           =   1.6999999916873E+01
(PID.TID 0000.0001) %MON dynstat_theta_sd             =   1.8679212890972E-02
(PID.TID 0000.0001) %MON dynstat_theta_del2           =   1.9640886312217E-04
(PID.TID 0000.0001) %MON dynstat_salt_max             =   1.7020387109310E+01
(PID.TID 0000.0001) %MON dynstat_salt_min             =   1.6979612982850E+01
(PID.TID 0000.0001) %MON dynstat_salt_mean            =   1.7000000005832E+01
(PID.TID 0000.0001) %MON dynstat_salt_sd              =   1.8680388872526E-02
(PID.TID 0000.0001) %MON dynstat_salt_del2            =   2.0722821220332E-04
(PID.TID 0000.0001) %MON advcfl_uvel_max              =   1.5141805145038E-02
(PID.TID 0000.0001) %MON advcfl_vvel_max              =   4.4452163143385E-03
(PID.TID 0000.0001) %MON advcfl_wvel_max              =   2.8986459175231E-02
(PID.TID 0000.0001) %MON advcfl_W_hf_max              =   2.8986459175231E-02
(PID.TID 0000.0001) %MON pe_b_mean                    =   3.4192380341891E-09
(PID.TID 0000.0001) %MON ke_max                       =   8.0238388681585E-05
(PID.TID 0000.0001) %MON ke_mean                      =   3.7127216300053E-06
(PID.TID 0000.0001) %MON ke_vol                       =   2.5000000000000E+11
(PID.TID 0000.0001) %MON vort_r_min                   =  -6.3229394181398E-06
(PID.TID 0000.0001) %MON vort_r_max                   =   6.2049780568068E-06
(PID.TID 0000.0001) %MON vort_a_mean                  =   7.2900000000001E-05
(PID.TID 0000.0001) %MON vort_a_sd                    =   1.5260683619855E-06
(PID.TID 0000.0001) %MON vort_p_mean                  =   7.7363265306123E-05
(PID.TID 0000.0001) %MON vort_p_sd                    =   3.0962383526821E-05
(PID.TID 0000.0001) %MON surfExpan_theta_mean         =  -1.5226529353411E-14
(PID.TID 0000.0001) %MON surfExpan_salt_mean          =  -2.0530727980676E-17
(PID.TID 0000.0001) // =======================================================
(PID.TID 0000.0001) // End MONITOR dynamic field statistics
(PID.TID 0000.0001) // =======================================================
 cg2d: Sum(rhs),rhsMax =   1.12314671452118E-13  8.01533373595719E-04
(PID.TID 0000.0001)                    cg2d_init_res =    3.37934822125751E-02
(PID.TID 0000.0001)                       cg2d_iters =    73
(PID.TID 0000.0001)                         cg2d_res =    6.25218113990540E-12
(PID.TID 0000.0001) // =======================================================
(PID.TID 0000.0001) // Begin MONITOR dynamic field statistics
(PID.TID 0000.0001) // =======================================================
(PID.TID 0000.0001) %MON time_tsnumber                =                    70
(PID.TID 0000.0001) %MON time_secondsf                =   8.4000000000000E+04
(PID.TID 0000.0001) %MON dynstat_eta_max              =   4.0189071117522E-04
(PID.TID 0000.0001) %MON dynstat_eta_min              =  -4.1361531589008E-04
(PID.TID 0000.0001) %MON dynstat_eta_mean             =   1.1775627717370E-18
(PID.TID 0000.0001) %MON dynstat_eta_sd               =   3.7338795303010E-04
(PID.TID 0000.0001) %MON dynstat_eta_del2             =   3.8501744282067E-06
(PID.TID 0000.0001) %MON dynstat_uvel_max             =   1.2388485780339E-02
(PID.TID 0000.0001) %MON dynstat_uvel_min             =  -1.2390362287977E-02
(PID.TID 0000.0001) %MON dynstat_uvel_mean            =  -9.1501241059677E-07
(PID.TID 0000.0001) %MON dynstat_uvel_sd              =   2.4614931940295E-03
(PID.TID 0000.0001) %MON dynstat_uvel_del2            =   1.6492120207737E-04
(PID.TID 0000.0001) %MON dynstat_vvel_max             =   3.0633215966991E-03
(PID.TID 0000.0001) %MON dynstat_vvel_min             =  -3.0658166561501E-03
(PID.TID 0000.0001) %MON dynstat_vvel_mean            =  -1.3799021181233E-11
(PID.TID 0000.0001) %MON dynstat_vvel_sd              =   8.8794030334066E-04
(PID.TID 0000.0001) %MON dynstat_vvel_del2            =   1.0780208727874E-04
(PID.TID 0000.0001) %MON dynstat_wvel_max             =   1.2505800982127E-04
(PID.TID 0000.0001) %MON dynstat_wvel_min             =  -1.2519245895588E-04
(PID.TID 0000.0001) %MON dynstat_wvel_mean            =  -9.5690023124370E-22
(PID.TID 0000.0001) %MON dynstat_wvel_sd              =   4.1235654877422E-05
(PID.TID 0000.0001) %MON dynstat_wvel_del2            =   7.0182694382742E-06
(PID.TID 0000.0001) %MON dynstat_theta_max            =   1.7020391872684E+01
(PID.TID 0000.0001) %MON dynstat_theta_min            =   1.6979608189024E+01
(PID.TID 0000.0001) %MON dynstat_theta_mean           =   1.6999999916873E+01
(PID.TID 0000.0001) %MON dynstat_theta_sd             =   1.8679192538311E-02
(PID.TID 0000.0001) %MON dynstat_theta_del2           =   1.9643111295389E-04
(PID.TID 0000.0001) %MON dynstat_salt_max             =   1.7020387109310E+01
(PID.TID 0000.0001) %MON dynstat_salt_min             =   1.6979612982849E+01
(PID.TID 0000.0001) %MON dynstat_salt_mean            =   1.7000000005832E+01
(PID.TID 0000.0001) %MON dynstat_salt_sd              =   1.8680257449732E-02
(PID.TID 0000.0001) %MON dynstat_salt_del2            =   2.0767730359852E-04
(PID.TID 0000.0001) %MON advcfl_uvel_max              =   1.4868434745573E-02
(PID.TID 0000.0001) %MON advcfl_vvel_max              =   3.6789799873801E-03
(PID.TID 0000.0001) %MON advcfl_wvel_max              =   3.0046190149412E-02
(PID.TID 0000.0001) %MON advcfl_W_hf_max              =   3.0046190149412E-02
(PID.TID 0000.0001) %MON pe_b_mean                    =   3.4192402690530E-09
(PID.TID 0000.0001) %MON ke_max                       =   7.8505500790980E-05
(PID.TID 0000.0001) %MON ke_mean                      =   3.4079250222530E-06
(PID.TID 0000.0001) %MON ke_vol                       =   2.5000000000000E+11
(PID.TID 0000.0001) %MON vort_r_min                   =  -6.2787279648231E-06
(PID.TID 0000.0001) %MON vort_r_max                   =   6.1471670778104E-06
(PID.TID 0000.0001) %MON vort_a_mean                  =   7.2900000000000E-05
(PID.TID 0000.0001) %MON vort_a_sd                    =   1.5140770303920E-06
(PID.TID 0000.0001) %MON vort_p_mean                  =   7.7363265306123E-05
(PID.TID 0000.0001) %MON vort_p_sd                    =   3.0961762950416E-05
(PID.TID 0000.0001) %MON surfExpan_theta_mean         =  -2.5917682981755E-14
(PID.TID 0000.0001) %MON surfExpan_salt_mean          =  -2.9877812883894E-18
(PID.TID 0000.0001) // =======================================================
(PID.TID 0000.0001) // End MONITOR dynamic field statistics
(PID.TID 0000.0001) // =======================================================
 cg2d: Sum(rhs),rhsMax =  -2.73481324392089E-14  8.01724917244268E-04
(PID.TID 0000.0001)                    cg2d_init_res =    3.02486598459083E-02
(PID.TID 0000.0001)                       cg2d_iters =    73
(PID.TID 0000.0001)                         cg2d_res =    5.43894390315058E-12
(PID.TID 0000.0001) // =======================================================
(PID.TID 0000.0001) // Begin MONITOR dynamic field statistics
(PID.TID 0000.0001) // =======================================================
(PID.TID 0000.0001) %MON time_tsnumber                =                    71
(PID.TID 0000.0001) %MON time_secondsf                =   8.5200000000000E+04
(PID.TID 0000.0001) %MON dynstat_eta_max              =   4.0185764885332E-04
(PID.TID 0000.0001) %MON dynstat_eta_min              =  -4.1364838731462E-04
(PID.TID 0000.0001) %MON dynstat_eta_mean             =  -4.1017148189049E-18
(PID.TID 0000.0001) %MON dynstat_eta_sd               =   3.7338665249754E-04
(PID.TID 0000.0001) %MON dynstat_eta_del2             =   3.8481466760354E-06
(PID.TID 0000.0001) %MON dynstat_uvel_max             =   1.2239181388137E-02
(PID.TID 0000.0001) %MON dynstat_uvel_min             =  -1.2241065195606E-02
(PID.TID 0000.0001) %MON dynstat_uvel_mean            =  -9.1501020273058E-07
(PID.TID 0000.0001) %MON dynstat_uvel_sd              =   2.4304747517550E-03
(PID.TID 0000.0001) %MON dynstat_uvel_del2            =   1.6470013577723E-04
(PID.TID 0000.0001) %MON dynstat_vvel_max             =   3.3635854200073E-03
(PID.TID 0000.0001) %MON dynstat_vvel_min             =  -3.3614589891622E-03
(PID.TID 0000.0001) %MON dynstat_vvel_mean            =   3.4383754649765E-12
(PID.TID 0000.0001) %MON dynstat_vvel_sd              =   7.5282898994006E-04
(PID.TID 0000.0001) %MON dynstat_vvel_del2            =   1.0707861943843E-04
(PID.TID 0000.0001) %MON dynstat_wvel_max             =   1.2946693039045E-04
(PID.TID 0000.0001) %MON dynstat_wvel_min             =  -1.2959895387644E-04
(PID.TID 0000.0001) %MON dynstat_wvel_mean            =  -1.1278039804475E-21
(PID.TID 0000.0001) %MON dynstat_wvel_sd              =   4.1098089117096E-05
(PID.TID 0000.0001) %MON dynstat_wvel_del2            =   7.0125127323394E-06
(PID.TID 0000.0001) %MON dynstat_theta_max            =   1.7020391872684E+01
(PID.TID 0000.0001) %MON dynstat_theta_min            =   1.6979608189024E+01
(PID.TID 0000.0001) %MON dynstat_theta_mean           =   1.6999999916874E+01
(PID.TID 0000.0001) %MON dynstat_theta_sd             =   1.8679166258132E-02
(PID.TID 0000.0001) %MON dynstat_theta_del2           =   1.9644465559217E-04
(PID.TID 0000.0001) %MON dynstat_salt_max             =   1.7020387109310E+01
(PID.TID 0000.0001) %MON dynstat_salt_min             =   1.6979612982849E+01
(PID.TID 0000.0001) %MON dynstat_salt_mean            =   1.7000000005832E+01
(PID.TID 0000.0001) %MON dynstat_salt_sd              =   1.8680087260608E-02
(PID.TID 0000.0001) %MON dynstat_salt_del2            =   2.0825700538895E-04
(PID.TID 0000.0001) %MON advcfl_uvel_max              =   1.4689278234727E-02
(PID.TID 0000.0001) %MON advcfl_vvel_max              =   4.0363025040088E-03
(PID.TID 0000.0001) %MON advcfl_wvel_max              =   3.1103748930346E-02
(PID.TID 0000.0001) %MON advcfl_W_hf_max              =   3.1103748930346E-02
(PID.TID 0000.0001) %MON pe_b_mean                    =   3.4192164502579E-09
(PID.TID 0000.0001) %MON ke_max                       =   7.8603422561356E-05
(PID.TID 0000.0001) %MON ke_mean                      =   3.2256448923664E-06
(PID.TID 0000.0001) %MON ke_vol                       =   2.5000000000000E+11
(PID.TID 0000.0001) %MON vort_r_min                   =  -6.2443608920294E-06
(PID.TID 0000.0001) %MON vort_r_max                   =   6.1062267205546E-06
(PID.TID 0000.0001) %MON vort_a_mean                  =   7.2900000000000E-05
(PID.TID 0000.0001) %MON vort_a_sd                    =   1.5052067007085E-06
(PID.TID 0000.0001) %MON vort_p_mean                  =   7.7363265306123E-05
(PID.TID 0000.0001) %MON vort_p_sd                    =   3.0961308484835E-05
(PID.TID 0000.0001) %MON surfExpan_theta_mean         =  -3.9397585848838E-14
(PID.TID 0000.0001) %MON surfExpan_salt_mean          =  -1.9837094457348E-17
(PID.TID 0000.0001) // =======================================================
(PID.TID 0000.0001) // End MONITOR dynamic field statistics
(PID.TID 0000.0001) // =======================================================
 cg2d: Sum(rhs),rhsMax =  -4.24385461668397E-14  8.01959348810070E-04
(PID.TID 0000.0001)                    cg2d_init_res =    2.82410980931595E-02
(PID.TID 0000.0001)                       cg2d_iters =    73
(PID.TID 0000.0001)                         cg2d_res =    7.56715272700446E-12
(PID.TID 0000.0001) // =======================================================
(PID.TID 0000.0001) // Begin MONITOR dynamic field statistics
(PID.TID 0000.0001) // =======================================================
(PID.TID 0000.0001) %MON time_tsnumber                =                    72
(PID.TID 0000.0001) %MON time_secondsf                =   8.6400000000000E+04
(PID.TID 0000.0001) %MON dynstat_eta_max              =   4.0182811192582E-04
(PID.TID 0000.0001) %MON dynstat_eta_min              =  -4.1367793399633E-04
(PID.TID 0000.0001) %MON dynstat_eta_mean             =   2.5884886645233E-18
(PID.TID 0000.0001) %MON dynstat_eta_sd               =   3.7338377932135E-04
(PID.TID 0000.0001) %MON dynstat_eta_del2             =   3.8458294105233E-06
(PID.TID 0000.0001) %MON dynstat_uvel_max             =   1.2168422289225E-02
(PID.TID 0000.0001) %MON dynstat_uvel_min             =  -1.2170310215526E-02
(PID.TID 0000.0001) %MON dynstat_uvel_mean            =  -9.1500676524176E-07
(PID.TID 0000.0001) %MON dynstat_uvel_sd              =   2.4132535701044E-03
(PID.TID 0000.0001) %MON dynstat_uvel_del2            =   1.6448431341048E-04
(PID.TID 0000.0001) %MON dynstat_vvel_max             =   4.2581825739492E-03
(PID.TID 0000.0001) %MON dynstat_vvel_min             =  -4.2560778914045E-03
(PID.TID 0000.0001) %MON dynstat_vvel_mean            =   2.1691708263042E-11
(PID.TID 0000.0001) %MON dynstat_vvel_sd              =   7.2710130870056E-04
(PID.TID 0000.0001) %MON dynstat_vvel_del2            =   1.0656689744289E-04
(PID.TID 0000.0001) %MON dynstat_wvel_max             =   1.3382551095240E-04
(PID.TID 0000.0001) %MON dynstat_wvel_min             =  -1.3395514324813E-04
(PID.TID 0000.0001) %MON dynstat_wvel_mean            =   4.3513331183515E-22
(PID.TID 0000.0001) %MON dynstat_wvel_sd              =   4.1389207006136E-05
(PID.TID 0000.0001) %MON dynstat_wvel_del2            =   7.0062563169807E-06
(PID.TID 0000.0001) %MON dynstat_theta_max            =   1.7020391872684E+01
(PID.TID 0000.0001) %MON dynstat_theta_min            =   1.6979608189024E+01
(PID.TID 0000.0001) %MON dynstat_theta_mean           =   1.6999999916874E+01
(PID.TID 0000.0001) %MON dynstat_theta_sd             =   1.8679132009686E-02
(PID.TID 0000.0001) %MON dynstat_theta_del2           =   1.9644849069658E-04
(PID.TID 0000.0001) %MON dynstat_salt_max             =   1.7020387109310E+01
(PID.TID 0000.0001) %MON dynstat_salt_min             =   1.6979612982849E+01
(PID.TID 0000.0001) %MON dynstat_salt_mean            =   1.7000000005832E+01
(PID.TID 0000.0001) %MON dynstat_salt_sd              =   1.8679960697596E-02
(PID.TID 0000.0001) %MON dynstat_salt_del2            =   2.0866978440669E-04
(PID.TID 0000.0001) %MON advcfl_uvel_max              =   1.4604372258631E-02
(PID.TID 0000.0001) %MON advcfl_vvel_max              =   5.1098190887390E-03
(PID.TID 0000.0001) %MON advcfl_wvel_max              =   3.2149234379552E-02
(PID.TID 0000.0001) %MON advcfl_W_hf_max              =   3.2149234379552E-02
(PID.TID 0000.0001) %MON pe_b_mean                    =   3.4191638293437E-09
(PID.TID 0000.0001) %MON ke_max                       =   8.0498990288949E-05
(PID.TID 0000.0001) %MON ke_mean                      =   3.1656614457243E-06
(PID.TID 0000.0001) %MON ke_vol                       =   2.5000000000000E+11
(PID.TID 0000.0001) %MON vort_r_min                   =  -6.2197444600036E-06
(PID.TID 0000.0001) %MON vort_r_max                   =   6.0821219289831E-06
(PID.TID 0000.0001) %MON vort_a_mean                  =   7.2900000000000E-05
(PID.TID 0000.0001) %MON vort_a_sd                    =   1.4993236854515E-06
(PID.TID 0000.0001) %MON vort_p_mean                  =   7.7363265306122E-05
(PID.TID 0000.0001) %MON vort_p_sd                    =   3.0961010439623E-05
(PID.TID 0000.0001) %MON surfExpan_theta_mean         =  -5.5475800806533E-14
(PID.TID 0000.0001) %MON surfExpan_salt_mean          =   2.8900890049551E-18
(PID.TID 0000.0001) // =======================================================
(PID.TID 0000.0001) // End MONITOR dynamic field statistics
(PID.TID 0000.0001) // =======================================================
 Computing Diagnostic # 267  UVELSLT      Counter:   72      Parms: UU   268MR      
           Vector  Mate for  UVELSLT      Diagnostic # 268  VVELSLT  exists 
 Computing Diagnostic # 268  VVELSLT      Counter:   72      Parms: VV   267MR      
           Vector  Mate for  VVELSLT      Diagnostic # 267  UVELSLT  exists 
 Computing Diagnostic # 269  WVELSLT      Counter:   72      Parms: WM      LR      
 Computing Diagnostic # 264  UVELTH       Counter:   72      Parms: UU   265MR      
           Vector  Mate for  UVELTH       Diagnostic # 265  VVELTH   exists 
 Computing Diagnostic # 265  VVELTH       Counter:   72      Parms: VV   264MR      
           Vector  Mate for  VVELTH       Diagnostic # 264  UVELTH   exists 
 Computing Diagnostic # 266  WVELTH       Counter:   72      Parms: WM      LR      
(PID.TID 0000.0001) %CHECKPOINT        72 0000000072
(PID.TID 0000.0001)   Seconds in section "ALL                    [THE_MODEL_MAIN]":
(PID.TID 0000.0001)           User time: 16.3199996948242188
(PID.TID 0000.0001)         System time: 3.49999999068677425
(PID.TID 0000.0001)     Wall clock time: 19.6305859088897705
(PID.TID 0000.0001)          No. starts: 1
(PID.TID 0000.0001)           No. stops: 1
(PID.TID 0000.0001)   Seconds in section "INITIALISE_FIXED       [THE_MODEL_MAIN]":
(PID.TID 0000.0001)           User time: 0.180000007152557373
(PID.TID 0000.0001)         System time: 0.290000012144446373
(PID.TID 0000.0001)     Wall clock time: 0.453029155731201172
(PID.TID 0000.0001)          No. starts: 1
(PID.TID 0000.0001)           No. stops: 1
(PID.TID 0000.0001)   Seconds in section "THE_MAIN_LOOP          [THE_MODEL_MAIN]":
(PID.TID 0000.0001)           User time: 16.1399996876716614
(PID.TID 0000.0001)         System time: 3.20999997854232788
(PID.TID 0000.0001)     Wall clock time: 19.1773500442504883
(PID.TID 0000.0001)          No. starts: 1
(PID.TID 0000.0001)           No. stops: 1
(PID.TID 0000.0001)   Seconds in section "INITIALISE_VARIA    [THE_MAIN_LOOP]":
(PID.TID 0000.0001)           User time: 0.199999958276748657E-01
(PID.TID 0000.0001)         System time: 0.899999737739562988E-01
(PID.TID 0000.0001)     Wall clock time: 0.966348648071289062E-01
(PID.TID 0000.0001)          No. starts: 1
(PID.TID 0000.0001)           No. stops: 1
(PID.TID 0000.0001)   Seconds in section "MONITOR             [THE_MAIN_LOOP]":
(PID.TID 0000.0001)           User time: 0.999999046325683594E-02
(PID.TID 0000.0001)         System time: 0.000000000000000000E+00
(PID.TID 0000.0001)     Wall clock time: 0.130560398101806641E-01
(PID.TID 0000.0001)          No. starts: 1
(PID.TID 0000.0001)           No. stops: 1
(PID.TID 0000.0001)   Seconds in section "DO_THE_MODEL_IO     [THE_MAIN_LOOP]":
(PID.TID 0000.0001)           User time: 0.300000011920928955E-01
(PID.TID 0000.0001)         System time: 0.400000214576721191E-01
(PID.TID 0000.0001)     Wall clock time: 0.683100223541259766E-01
(PID.TID 0000.0001)          No. starts: 1
(PID.TID 0000.0001)           No. stops: 1
(PID.TID 0000.0001)   Seconds in section "MAIN LOOP           [THE_MAIN_LOOP]":
(PID.TID 0000.0001)           User time: 16.0799997001886368
(PID.TID 0000.0001)         System time: 3.07999998331069946
(PID.TID 0000.0001)     Wall clock time: 18.9991641044616699
(PID.TID 0000.0001)          No. starts: 1
(PID.TID 0000.0001)           No. stops: 1
(PID.TID 0000.0001)   Seconds in section "FORWARD_STEP        [THE_MAIN_LOOP]":
(PID.TID 0000.0001)           User time: 16.0799997001886368
(PID.TID 0000.0001)         System time: 3.07999998331069946
(PID.TID 0000.0001)     Wall clock time: 18.9969234466552734
(PID.TID 0000.0001)          No. starts: 72
(PID.TID 0000.0001)           No. stops: 72
(PID.TID 0000.0001)   Seconds in section "DO_STATEVARS_DIAGS  [FORWARD_STEP]":
(PID.TID 0000.0001)           User time: 0.490000739693641663
(PID.TID 0000.0001)         System time: 0.000000000000000000E+00
(PID.TID 0000.0001)     Wall clock time: 0.486623764038085938
(PID.TID 0000.0001)          No. starts: 144
(PID.TID 0000.0001)           No. stops: 144
(PID.TID 0000.0001)   Seconds in section "EXTERNAL_FIELDS_LOAD[FORWARD_STEP]":
(PID.TID 0000.0001)           User time: 0.000000000000000000E+00
(PID.TID 0000.0001)         System time: 0.000000000000000000E+00
(PID.TID 0000.0001)     Wall clock time: 0.223898887634277344E-02
(PID.TID 0000.0001)          No. starts: 72
(PID.TID 0000.0001)           No. stops: 72
(PID.TID 0000.0001)   Seconds in section "DO_ATMOSPHERIC_PHYS [FORWARD_STEP]":
(PID.TID 0000.0001)           User time: 0.100002288818359375E-01
(PID.TID 0000.0001)         System time: 0.000000000000000000E+00
(PID.TID 0000.0001)     Wall clock time: 0.211882591247558594E-02
(PID.TID 0000.0001)          No. starts: 72
(PID.TID 0000.0001)           No. stops: 72
(PID.TID 0000.0001)   Seconds in section "DO_OCEANIC_PHYS     [FORWARD_STEP]":
(PID.TID 0000.0001)           User time: 0.369999945163726807
(PID.TID 0000.0001)         System time: 0.000000000000000000E+00
(PID.TID 0000.0001)     Wall clock time: 0.334367752075195312
(PID.TID 0000.0001)          No. starts: 72
(PID.TID 0000.0001)           No. stops: 72
(PID.TID 0000.0001)   Seconds in section "DYNAMICS            [FORWARD_STEP]":
(PID.TID 0000.0001)           User time: 7.17999768257141113
(PID.TID 0000.0001)         System time: 1.12000024318695068
(PID.TID 0000.0001)     Wall clock time: 8.29807090759277344
(PID.TID 0000.0001)          No. starts: 72
(PID.TID 0000.0001)           No. stops: 72
(PID.TID 0000.0001)   Seconds in section "SOLVE_FOR_PRESSURE  [FORWARD_STEP]":
(PID.TID 0000.0001)           User time: 0.269999980926513672
(PID.TID 0000.0001)         System time: 0.000000000000000000E+00
(PID.TID 0000.0001)     Wall clock time: 0.246516227722167969
(PID.TID 0000.0001)          No. starts: 72
(PID.TID 0000.0001)           No. stops: 72
(PID.TID 0000.0001)   Seconds in section "UV_CORRECTION_STEP  [FORWARD_STEP]":
(PID.TID 0000.0001)           User time: 0.209998965263366699
(PID.TID 0000.0001)         System time: 0.000000000000000000E+00
(PID.TID 0000.0001)     Wall clock time: 0.237988233566284180
(PID.TID 0000.0001)          No. starts: 72
(PID.TID 0000.0001)           No. stops: 72
(PID.TID 0000.0001)   Seconds in section "BLOCKING_EXCHANGES  [FORWARD_STEP]":
(PID.TID 0000.0001)           User time: 0.149999499320983887
(PID.TID 0000.0001)         System time: 0.000000000000000000E+00
(PID.TID 0000.0001)     Wall clock time: 0.159597635269165039
(PID.TID 0000.0001)          No. starts: 144
(PID.TID 0000.0001)           No. stops: 144
(PID.TID 0000.0001)   Seconds in section "THERMODYNAMICS      [FORWARD_STEP]":
(PID.TID 0000.0001)           User time: 4.25999802350997925
(PID.TID 0000.0001)         System time: 0.199999809265136719E-01
(PID.TID 0000.0001)     Wall clock time: 4.11368513107299805
(PID.TID 0000.0001)          No. starts: 72
(PID.TID 0000.0001)           No. stops: 72
(PID.TID 0000.0001)   Seconds in section "TS_CORRECTION_STEP  [FORWARD_STEP]":
(PID.TID 0000.0001)           User time: 0.799999237060546875E-01
(PID.TID 0000.0001)         System time: 0.000000000000000000E+00
(PID.TID 0000.0001)     Wall clock time: 0.790543556213378906E-01
(PID.TID 0000.0001)          No. starts: 72
(PID.TID 0000.0001)           No. stops: 72
(PID.TID 0000.0001)   Seconds in section "DO_STATEVARS_TAVE   [FORWARD_STEP]":
(PID.TID 0000.0001)           User time: 0.740003347396850586
(PID.TID 0000.0001)         System time: 0.000000000000000000E+00
(PID.TID 0000.0001)     Wall clock time: 0.691030502319335938
(PID.TID 0000.0001)          No. starts: 72
(PID.TID 0000.0001)           No. stops: 72
(PID.TID 0000.0001)   Seconds in section "MONITOR             [FORWARD_STEP]":
(PID.TID 0000.0001)           User time: 0.920000791549682617
(PID.TID 0000.0001)         System time: 0.499999523162841797E-01
(PID.TID 0000.0001)     Wall clock time: 0.921829462051391602
(PID.TID 0000.0001)          No. starts: 72
(PID.TID 0000.0001)           No. stops: 72
(PID.TID 0000.0001)   Seconds in section "DO_THE_MODEL_IO     [FORWARD_STEP]":
(PID.TID 0000.0001)           User time: 1.32999944686889648
(PID.TID 0000.0001)         System time: 1.60999983549118042
(PID.TID 0000.0001)     Wall clock time: 3.05345654487609863
(PID.TID 0000.0001)          No. starts: 72
(PID.TID 0000.0001)           No. stops: 72
(PID.TID 0000.0001)   Seconds in section "WRITE_CHECKPOINT    [FORWARD_STEP]":
(PID.TID 0000.0001)           User time: 0.600011348724365234E-01
(PID.TID 0000.0001)         System time: 0.269999980926513672
(PID.TID 0000.0001)     Wall clock time: 0.332091808319091797
(PID.TID 0000.0001)          No. starts: 72
(PID.TID 0000.0001)           No. stops: 72
(PID.TID 0000.0001)   Seconds in section "WRITE_CHECKPOINT       [THE_MODEL_MAIN]":
(PID.TID 0000.0001)           User time: 0.000000000000000000E+00
(PID.TID 0000.0001)         System time: 0.000000000000000000E+00
(PID.TID 0000.0001)     Wall clock time: 0.619888305664062500E-04
(PID.TID 0000.0001)          No. starts: 1
(PID.TID 0000.0001)           No. stops: 1
(PID.TID 0000.0001) // ======================================================
(PID.TID 0000.0001) // Tile <-> Tile communication statistics
(PID.TID 0000.0001) // ======================================================
(PID.TID 0000.0001) // o Tile number: 000001
(PID.TID 0000.0001) //         No. X exchanges =              0
(PID.TID 0000.0001) //            Max. X spins =              0
(PID.TID 0000.0001) //            Min. X spins =     1000000000
(PID.TID 0000.0001) //          Total. X spins =              0
(PID.TID 0000.0001) //            Avg. X spins =       0.00E+00
(PID.TID 0000.0001) //         No. Y exchanges =              0
(PID.TID 0000.0001) //            Max. Y spins =              0
(PID.TID 0000.0001) //            Min. Y spins =     1000000000
(PID.TID 0000.0001) //          Total. Y spins =              0
(PID.TID 0000.0001) //            Avg. Y spins =       0.00E+00
(PID.TID 0000.0001) // o Thread number: 000001
(PID.TID 0000.0001) //            No. barriers =          88450
(PID.TID 0000.0001) //      Max. barrier spins =              1
(PID.TID 0000.0001) //      Min. barrier spins =              1
(PID.TID 0000.0001) //     Total barrier spins =          88450
(PID.TID 0000.0001) //      Avg. barrier spins =       1.00E+00
