(PID.TID 0000.0001) 
(PID.TID 0000.0001) // ======================================================
(PID.TID 0000.0001) //                      MITgcm UV
(PID.TID 0000.0001) //                      =========
(PID.TID 0000.0001) // ======================================================
(PID.TID 0000.0001) // execution environment starting up...
(PID.TID 0000.0001) 
(PID.TID 0000.0001) // MITgcmUV version:  checkpoint57e_post
(PID.TID 0000.0001) // Build user:        baylor
(PID.TID 0000.0001) // Build host:        TWO.MIT.EDU
(PID.TID 0000.0001) // Build date:        Wed Mar  9 22:13:44 EST 2005
(PID.TID 0000.0001) 
(PID.TID 0000.0001) // =======================================================
(PID.TID 0000.0001) // Execution Environment parameter file "eedata"
(PID.TID 0000.0001) // =======================================================
(PID.TID 0000.0001) ># Example "eedata" file
(PID.TID 0000.0001) ># Lines beginning "#" are comments
(PID.TID 0000.0001) ># nTx - No. threads per process in X
(PID.TID 0000.0001) ># nTy - No. threads per process in Y
(PID.TID 0000.0001) > &EEPARMS
(PID.TID 0000.0001) > /
(PID.TID 0000.0001) ># Note: Some systems use & as the
(PID.TID 0000.0001) ># namelist terminator. Other systems
(PID.TID 0000.0001) ># use a & character (as shown here).
(PID.TID 0000.0001) 
(PID.TID 0000.0001) // =======================================================
(PID.TID 0000.0001) // Computational Grid Specification ( see files "SIZE.h" )
(PID.TID 0000.0001) //                                  ( and "eedata"       )
(PID.TID 0000.0001) // =======================================================
(PID.TID 0000.0001)      nPx =    1 ; /* No. processes in X */
(PID.TID 0000.0001)      nPy =    1 ; /* No. processes in Y */
(PID.TID 0000.0001)      nSx =    1 ; /* No. tiles in X per process */
(PID.TID 0000.0001)      nSy =    1 ; /* No. tiles in Y per process */
(PID.TID 0000.0001)      sNx =   50 ; /* Tile size in X */
(PID.TID 0000.0001)      sNy =   26 ; /* Tile size in Y */
(PID.TID 0000.0001)      OLx =    3 ; /* Tile overlap distance in X */
(PID.TID 0000.0001)      OLy =    3 ; /* Tile overlap distance in Y */
(PID.TID 0000.0001)      nTx =    1 ; /* No. threads in X per process */
(PID.TID 0000.0001)      nTy =    1 ; /* No. threads in Y per process */
(PID.TID 0000.0001)       Nr =   40 ; /* No. levels in the vertical   */
(PID.TID 0000.0001)       nX =   50 ; /* Total domain size in X ( = nPx*nSx*sNx ) */
(PID.TID 0000.0001)       nY =   26 ; /* Total domain size in Y ( = nPy*nSy*sNy ) */
(PID.TID 0000.0001)   nTiles =    1 ; /* Total no. tiles per process ( = nSx*nSy ) */
(PID.TID 0000.0001)   nProcs =    1 ; /* Total no. processes ( = nPx*nPy ) */
(PID.TID 0000.0001) nThreads =    1 ; /* Total no. threads per process ( = nTx*nTy ) */
(PID.TID 0000.0001) usingMPI =    F ; /* Flag used to control whether MPI is in use */
(PID.TID 0000.0001)                   /*  note: To execute a program with MPI calls */
(PID.TID 0000.0001)                   /*  it must be launched appropriately e.g     */
(PID.TID 0000.0001)                   /*  "mpirun -np 64 ......"                    */
(PID.TID 0000.0001) useCoupler=   F ; /* Flag used to control communications with */
(PID.TID 0000.0001)                   /*  other model components, through a coupler */
(PID.TID 0000.0001) 
(PID.TID 0000.0001) // ======================================================
(PID.TID 0000.0001) // Mapping of tiles to threads
(PID.TID 0000.0001) // ======================================================
(PID.TID 0000.0001) // -o- Thread   1, tiles (   1:   1,   1:   1)
(PID.TID 0000.0001) 
(PID.TID 0000.0001) // ======================================================
(PID.TID 0000.0001) // Tile <-> Tile connectvity table
(PID.TID 0000.0001) // ======================================================
(PID.TID 0000.0001) // Tile number: 000001 (process no. = 000001)
(PID.TID 0000.0001) //        WEST: Tile = 000001, Process = 000001, Comm = put
(PID.TID 0000.0001) //                bi = 000001, bj = 000001
(PID.TID 0000.0001) //        EAST: Tile = 000001, Process = 000001, Comm = put
(PID.TID 0000.0001) //                bi = 000001, bj = 000001
(PID.TID 0000.0001) //       SOUTH: Tile = 000001, Process = 000001, Comm = put
(PID.TID 0000.0001) //                bi = 000001, bj = 000001
(PID.TID 0000.0001) //       NORTH: Tile = 000001, Process = 000001, Comm = put
(PID.TID 0000.0001) //                bi = 000001, bj = 000001
(PID.TID 0000.0001) 
(PID.TID 0000.0001) // =======================================================
(PID.TID 0000.0001) // Model parameter file "data"
(PID.TID 0000.0001) // =======================================================
(PID.TID 0000.0001) ># ====================
(PID.TID 0000.0001) ># | Model parameters |
(PID.TID 0000.0001) ># ====================
(PID.TID 0000.0001) >#
(PID.TID 0000.0001) ># Continuous equation parameters
(PID.TID 0000.0001) > &PARM01
(PID.TID 0000.0001) > viscAr=5.E-3,
(PID.TID 0000.0001) ># This is the minimum viscosity used total=viscah+viscleith
(PID.TID 0000.0001) ># Often U*deltaX/2 for grid noise (Griffies and Hallberg,2000)
(PID.TID 0000.0001) > viscAh=3.E1,
(PID.TID 0000.0001) ># This is the standard Leith Viscosity, prop to grad(curl v_h)
(PID.TID 0000.0001) > viscC2leith=5.,
(PID.TID 0000.0001) ># This is an additional Leith Viscosity, prop to grad(div.v_h)
(PID.TID 0000.0001) ># It traps instabilities that have no signal in grad(curl v_h)
(PID.TID 0000.0001) > viscC2leithD=5.,
(PID.TID 0000.0001) ># These are the minimum viscosities used with Smagorinsky
(PID.TID 0000.0001) ># total=viscastrain+viscsmag, etc.
(PID.TID 0000.0001) ># viscAstrain=3.E1,
(PID.TID 0000.0001) ># viscAtension=3.E1,
(PID.TID 0000.0001) ># This is harmonic Smagorinsky Coefficient
(PID.TID 0000.0001) ># 0.15=value from 3-d turbulence theory;
(PID.TID 0000.0001) ># 3-4=stable oceanic values (Griffies and Hallberg, 2000)
(PID.TID 0000.0001) ># viscC2Smag=4.,
(PID.TID 0000.0001) ># This is the max Viscosity used, be it Smag or Leith, and it scales
(PID.TID 0000.0001) ># with grid size and timestep
(PID.TID 0000.0001) ># Often 0.5 for stability (Griffies and Hallberg,2000)
(PID.TID 0000.0001) > viscAhGridMax=0.5,
(PID.TID 0000.0001) > useFullLeith=.TRUE.,
(PID.TID 0000.0001) > no_slip_sides=.FALSE.,
(PID.TID 0000.0001) > no_slip_bottom=.FALSE.,
(PID.TID 0000.0001) > ivdc_kappa=10.,
(PID.TID 0000.0001) > implicitDiffusion=.TRUE.,
(PID.TID 0000.0001) > implicitViscosity=.TRUE.,
(PID.TID 0000.0001) > f0=7.29e-5,
(PID.TID 0000.0001) > beta=0.E-11,
(PID.TID 0000.0001) > eosType='LINEAR',
(PID.TID 0000.0001) ># Using Temperature as only Active Tracer
(PID.TID 0000.0001) > tAlpha=2.E-4,
(PID.TID 0000.0001) ># Using Salinity as Spice
(PID.TID 0000.0001) > sBeta =0.E-4,
(PID.TID 0000.0001) > saltStepping=.TRUE.,
(PID.TID 0000.0001) > gravity=9.81,
(PID.TID 0000.0001) > rhonil=1035.,
(PID.TID 0000.0001) > implicitFreeSurface=.TRUE.,
(PID.TID 0000.0001) > usejamartwetpoints=.TRUE.,
(PID.TID 0000.0001) > rigidLid=.FALSE.,
(PID.TID 0000.0001) > staggerTimeStep=.TRUE.,
(PID.TID 0000.0001) > readBinaryPrec=64,
(PID.TID 0000.0001) > writeBinaryPrec=64,
(PID.TID 0000.0001) > tempAdvScheme=33,
(PID.TID 0000.0001) > saltAdvScheme=33,
(PID.TID 0000.0001) > nonHydrostatic=.FALSE.,
(PID.TID 0000.0001) > vectorInvariantMomentum=.TRUE.,
(PID.TID 0000.0001) > /
(PID.TID 0000.0001) >
(PID.TID 0000.0001) ># Elliptic solver parameters
(PID.TID 0000.0001) > &PARM02
(PID.TID 0000.0001) > cg2dMaxIters=1000,
(PID.TID 0000.0001) > cg2dTargetResidual=1.E-11,
(PID.TID 0000.0001) > cg3dMaxIters=40,
(PID.TID 0000.0001) > cg3dTargetResidual=1.E-9,
(PID.TID 0000.0001) > /
(PID.TID 0000.0001) >
(PID.TID 0000.0001) ># Time stepping parameters
(PID.TID 0000.0001) > &PARM03
(PID.TID 0000.0001) > niter0=0,
(PID.TID 0000.0001) > endTime=86400.,
(PID.TID 0000.0001) > deltaT=1200.,
(PID.TID 0000.0001) > abEps=0.01,
(PID.TID 0000.0001) > pchkptFreq=43200.,
(PID.TID 0000.0001) > taveFreq=7200.,
(PID.TID 0000.0001) > dumpFreq=7200.,
(PID.TID 0000.0001) > diagFreq=7200.,
(PID.TID 0000.0001) > monitorFreq=1200.,
(PID.TID 0000.0001) > cadjfreq=0.,
(PID.TID 0000.0001) > /
(PID.TID 0000.0001) >
(PID.TID 0000.0001) ># Gridding parameters
(PID.TID 0000.0001) > &PARM04
(PID.TID 0000.0001) > usingCartesianGrid=.TRUE.,
(PID.TID 0000.0001) > usingSphericalPolarGrid=.FALSE.,
(PID.TID 0000.0001) >  delR= 5d0, 5d0, 5d0, 5d0, 5d0,
(PID.TID 0000.0001) >    5d0, 5d0, 5d0, 5d0, 5d0,
(PID.TID 0000.0001) >    5d0, 5d0, 5d0, 5d0, 5d0,
(PID.TID 0000.0001) >    5d0, 5d0, 5d0, 5d0, 5d0,
(PID.TID 0000.0001) >    5d0, 5d0, 5d0, 5d0, 5d0,
(PID.TID 0000.0001) >    5d0, 5d0, 5d0, 5d0, 5d0,
(PID.TID 0000.0001) >    5d0, 5d0, 5d0, 5d0, 5d0,
(PID.TID 0000.0001) >    5d0, 5d0, 5d0, 5d0, 5d0,
(PID.TID 0000.0001) > dxspacing=1d3,
(PID.TID 0000.0001) > dyspacing=1d3,
(PID.TID 0000.0001) > /
(PID.TID 0000.0001) >
(PID.TID 0000.0001) ># Input datasets
(PID.TID 0000.0001) > &PARM05
(PID.TID 0000.0001) > bathyFile='topo_sl.bin',
(PID.TID 0000.0001) > hydrogThetaFile='thetaInitial.bin',
(PID.TID 0000.0001) > hydrogSaltFile='spiceInitial.bin',
(PID.TID 0000.0001) > /
(PID.TID 0000.0001) >
(PID.TID 0000.0001) 
(PID.TID 0000.0001) S/R INI_PARMS ; starts to read PARM01
(PID.TID 0000.0001) S/R INI_PARMS ; read PARM01 : OK
(PID.TID 0000.0001) S/R INI_PARMS ; starts to read PARM02
(PID.TID 0000.0001) S/R INI_PARMS ; read PARM02 : OK
(PID.TID 0000.0001) S/R INI_PARMS ; starts to read PARM03
(PID.TID 0000.0001) S/R INI_PARMS ; read PARM03 : OK
(PID.TID 0000.0001) S/R INI_PARMS ; starts to read PARM04
(PID.TID 0000.0001) S/R INI_PARMS ; read PARM04 : OK
(PID.TID 0000.0001) S/R INI_PARMS ; starts to read PARM05
(PID.TID 0000.0001) S/R INI_PARMS ; read PARM05 : OK
(PID.TID 0000.0001)  PACKAGES_BOOT: opening data.pkg
(PID.TID 0000.0001)  OPEN_COPY_DATA_FILE: opening file data.pkg
(PID.TID 0000.0001) // =======================================================
(PID.TID 0000.0001) // Parameter file "data.pkg"
(PID.TID 0000.0001) // =======================================================
(PID.TID 0000.0001) ># Packages
(PID.TID 0000.0001) > &PACKAGES
(PID.TID 0000.0001) >   useKPP     = .FALSE.,
(PID.TID 0000.0001) >   useMNC     = .TRUE.,
(PID.TID 0000.0001) >   useDIAGNOSTICS= .TRUE.,
(PID.TID 0000.0001) > /
(PID.TID 0000.0001) >
(PID.TID 0000.0001) 
(PID.TID 0000.0001)  PACKAGES_BOOT: finished reading data.pkg
(PID.TID 0000.0001)  MNC_READPARMS: opening file 'data.mnc'
(PID.TID 0000.0001) // =======================================================
(PID.TID 0000.0001) // Parameter file "data.mnc"
(PID.TID 0000.0001) // =======================================================
(PID.TID 0000.0001) ># Example "data.mnc" file
(PID.TID 0000.0001) ># Lines beginning "#" are comments
(PID.TID 0000.0001) > &MNC_01
(PID.TID 0000.0001) ># mnc_echo_gvtypes=.FALSE.,
(PID.TID 0000.0001) ># mnc_use_indir=.FALSE.,
(PID.TID 0000.0001) > mnc_use_outdir=.TRUE.,
(PID.TID 0000.0001) > mnc_outdir_str='input.0_',
(PID.TID 0000.0001) ># mnc_outdir_date=.TRUE.,
(PID.TID 0000.0001) > monitor_mnc=.FALSE.,
(PID.TID 0000.0001) > snapshot_mnc=.TRUE.,
(PID.TID 0000.0001) > timeave_mnc=.TRUE.,
(PID.TID 0000.0001) > pickup_write_mnc=.TRUE.,
(PID.TID 0000.0001) > pickup_read_mnc=.TRUE.,
(PID.TID 0000.0001) > /
(PID.TID 0000.0001) ># Note: Some systems use & as the
(PID.TID 0000.0001) ># namelist terminator. Other systems
(PID.TID 0000.0001) ># use a & character (as shown here).
(PID.TID 0000.0001) 
(PID.TID 0000.0001)  MNC_READPARMS: finished reading data.mnc
(PID.TID 0000.0001)  DIAGNOSTICS_READPARMS: opening data.diagnostics
(PID.TID 0000.0001)  OPEN_COPY_DATA_FILE: opening file data.diagnostics
(PID.TID 0000.0001) // =======================================================
(PID.TID 0000.0001) // Parameter file "data.diagnostics"
(PID.TID 0000.0001) // =======================================================
(PID.TID 0000.0001) ># Diagnostic Package Choices
(PID.TID 0000.0001) >#-----------------
(PID.TID 0000.0001) ># for each output-stream:
(PID.TID 0000.0001) >#  filename(n) : prefix of the output file name (only 8.c long) for outp.stream n
(PID.TID 0000.0001) >#  frequency(n):< 0 : write snap-shot output every multiple of |frequency| (iter)
(PID.TID 0000.0001) >#               > 0 : write time-average output every multiple of frequency (iter)
(PID.TID 0000.0001) >#  levels(:,n) : list of levels to write to file (Notes: declared as REAL)
(PID.TID 0000.0001) >#                 when this entry is missing, select all common levels of this list
(PID.TID 0000.0001) >#  fields(:,n) : list of diagnostics fields (8.c) (see "available_diagnostics" file
(PID.TID 0000.0001) >#                 for the list of all available diag. in this particular config)
(PID.TID 0000.0001) >#-----------------
(PID.TID 0000.0001) > &diagnostics_list
(PID.TID 0000.0001) >  diag_mnc=.TRUE.,
(PID.TID 0000.0001) >  frequency(1) = 72,
(PID.TID 0000.0001) >  fields(1,1) = 'UVELSLT ','VVELSLT ','WVELSLT ',
(PID.TID 0000.0001) >  filename(1) = 'spiceflx',
(PID.TID 0000.0001) >  frequency(2) = 72,
(PID.TID 0000.0001) >  fields(1,2) = 'UVELTH  ','VVELTH ','WVELTH ',
(PID.TID 0000.0001) >  filename(2) = 'thetaflx',
(PID.TID 0000.0001) > /
(PID.TID 0000.0001) >
(PID.TID 0000.0001) 
(PID.TID 0000.0001) -----------------------------------------------------
(PID.TID 0000.0001)  DIAGNOSTICS_READPARMS: active diagnostics summary:
(PID.TID 0000.0001) -----------------------------------------------------
(PID.TID 0000.0001) Creating Output Stream: spiceflx
(PID.TID 0000.0001)  Frequency:  72
(PID.TID 0000.0001)  Levels:    will be set later
(PID.TID 0000.0001)  Fields:    UVELSLT  VVELSLT  WVELSLT
(PID.TID 0000.0001) Creating Output Stream: thetaflx
(PID.TID 0000.0001)  Frequency:  72
(PID.TID 0000.0001)  Levels:    will be set later
(PID.TID 0000.0001)  Fields:    UVELTH   VVELTH   WVELTH
(PID.TID 0000.0001) -----------------------------------------------------
(PID.TID 0000.0001) 
(PID.TID 0000.0001) %MON XC_max                       =   4.9500000000000E+04
(PID.TID 0000.0001) %MON XC_min                       =   5.0000000000000E+02
(PID.TID 0000.0001) %MON XC_mean                      =   2.5000000000000E+04
(PID.TID 0000.0001) %MON XC_sd                        =   1.4430869689662E+04
(PID.TID 0000.0001) %MON XG_max                       =   4.9000000000000E+04
(PID.TID 0000.0001) %MON XG_min                       =   1.0000000000000E+03
(PID.TID 0000.0001) %MON XG_mean                      =   2.5000000000000E+04
(PID.TID 0000.0001) %MON XG_sd                        =   1.4142135623731E+04
(PID.TID 0000.0001) %MON DXC_max                      =   1.0000000000000E+03
(PID.TID 0000.0001) %MON DXC_min                      =   1.0000000000000E+03
(PID.TID 0000.0001) %MON DXC_mean                     =   1.0000000000000E+03
(PID.TID 0000.0001) %MON DXC_sd                       =   0.0000000000000E+00
(PID.TID 0000.0001) %MON DXF_max                      =   1.0000000000000E+03
(PID.TID 0000.0001) %MON DXF_min                      =   1.0000000000000E+03
(PID.TID 0000.0001) %MON DXF_mean                     =   1.0000000000000E+03
(PID.TID 0000.0001) %MON DXF_sd                       =   0.0000000000000E+00
(PID.TID 0000.0001) %MON DXG_max                      =   1.0000000000000E+03
(PID.TID 0000.0001) %MON DXG_min                      =   1.0000000000000E+03
(PID.TID 0000.0001) %MON DXG_mean                     =   1.0000000000000E+03
(PID.TID 0000.0001) %MON DXG_sd                       =   0.0000000000000E+00
(PID.TID 0000.0001) %MON DXV_max                      =   1.0000000000000E+03
(PID.TID 0000.0001) %MON DXV_min                      =   1.0000000000000E+03
(PID.TID 0000.0001) %MON DXV_mean                     =   1.0000000000000E+03
(PID.TID 0000.0001) %MON DXV_sd                       =   0.0000000000000E+00
(PID.TID 0000.0001) %MON YC_max                       =   2.5500000000000E+04
(PID.TID 0000.0001) %MON YC_min                       =   5.0000000000000E+02
(PID.TID 0000.0001) %MON YC_mean                      =   1.3000000000000E+04
(PID.TID 0000.0001) %MON YC_sd                        =   7.5000000000000E+03
(PID.TID 0000.0001) %MON YG_max                       =   2.5000000000000E+04
(PID.TID 0000.0001) %MON YG_min                       =   1.0000000000000E+03
(PID.TID 0000.0001) %MON YG_mean                      =   1.3000000000000E+04
(PID.TID 0000.0001) %MON YG_sd                        =   7.2111025509280E+03
(PID.TID 0000.0001) %MON DYC_max                      =   1.0000000000000E+03
(PID.TID 0000.0001) %MON DYC_min                      =   1.0000000000000E+03
(PID.TID 0000.0001) %MON DYC_mean                     =   1.0000000000000E+03
(PID.TID 0000.0001) %MON DYC_sd                       =   0.0000000000000E+00
(PID.TID 0000.0001) %MON DYF_max                      =   1.0000000000000E+03
(PID.TID 0000.0001) %MON DYF_min                      =   1.0000000000000E+03
(PID.TID 0000.0001) %MON DYF_mean                     =   1.0000000000000E+03
(PID.TID 0000.0001) %MON DYF_sd                       =   0.0000000000000E+00
(PID.TID 0000.0001) %MON DYG_max                      =   1.0000000000000E+03
(PID.TID 0000.0001) %MON DYG_min                      =   1.0000000000000E+03
(PID.TID 0000.0001) %MON DYG_mean                     =   1.0000000000000E+03
(PID.TID 0000.0001) %MON DYG_sd                       =   0.0000000000000E+00
(PID.TID 0000.0001) %MON DYU_max                      =   1.0000000000000E+03
(PID.TID 0000.0001) %MON DYU_min                      =   1.0000000000000E+03
(PID.TID 0000.0001) %MON DYU_mean                     =   1.0000000000000E+03
(PID.TID 0000.0001) %MON DYU_sd                       =   0.0000000000000E+00
(PID.TID 0000.0001) %MON RA_max                       =   1.0000000000000E+06
(PID.TID 0000.0001) %MON RA_min                       =   1.0000000000000E+06
(PID.TID 0000.0001) %MON RA_mean                      =   1.0000000000000E+06
(PID.TID 0000.0001) %MON RA_sd                        =   0.0000000000000E+00
(PID.TID 0000.0001) %MON RAW_max                      =   1.0000000000000E+06
(PID.TID 0000.0001) %MON RAW_min                      =   1.0000000000000E+06
(PID.TID 0000.0001) %MON RAW_mean                     =   1.0000000000000E+06
(PID.TID 0000.0001) %MON RAW_sd                       =   0.0000000000000E+00
(PID.TID 0000.0001) %MON RAS_max                      =   1.0000000000000E+06
(PID.TID 0000.0001) %MON RAS_min                      =   1.0000000000000E+06
(PID.TID 0000.0001) %MON RAS_mean                     =   1.0000000000000E+06
(PID.TID 0000.0001) %MON RAS_sd                       =   0.0000000000000E+00
(PID.TID 0000.0001) %MON RAZ_max                      =   1.0000000000000E+06
(PID.TID 0000.0001) %MON RAZ_min                      =   1.0000000000000E+06
(PID.TID 0000.0001) %MON RAZ_mean                     =   1.0000000000000E+06
(PID.TID 0000.0001) %MON RAZ_sd                       =   0.0000000000000E+00
(PID.TID 0000.0001)  MDSREADFIELD: opening global file: topo_sl.bin
(PID.TID 0000.0001) // =======================================================
(PID.TID 0000.0001) // Field Model R_low (ini_masks_etc) at iteration          1
(PID.TID 0000.0001) // CMIN =         -2.000000000000000E+02
(PID.TID 0000.0001) // CMAX =         -2.000000000000000E+02
(PID.TID 0000.0001) // CINT =          0.000000000000000E+00
(PID.TID 0000.0001) // SYMBOLS (CMIN->CMAX): -abcdefghijklmnopqrstuvwxyz+
(PID.TID 0000.0001) //                  0.0: .
(PID.TID 0000.0001) // RANGE I (Lo:Hi:Step):(  -2:  53:   1)
(PID.TID 0000.0001) // RANGE J (Lo:Hi:Step):(  29:  -2:  -1)
(PID.TID 0000.0001) // RANGE K (Lo:Hi:Step):(   1:   1:   1)
(PID.TID 0000.0001) // =======================================================
(PID.TID 0000.0001) // =======================================================
(PID.TID 0000.0001) // END OF FIELD                                          =
(PID.TID 0000.0001) // =======================================================
(PID.TID 0000.0001) 
(PID.TID 0000.0001) // =======================================================
(PID.TID 0000.0001) // Field Model Ro_surf (ini_masks_etc) at iteration          1
(PID.TID 0000.0001) // CMIN =          1.000000000000000E+32
(PID.TID 0000.0001) // CMAX =         -1.000000000000000E+32
(PID.TID 0000.0001) // CINT =          0.000000000000000E+00
(PID.TID 0000.0001) // SYMBOLS (CMIN->CMAX): -abcdefghijklmnopqrstuvwxyz+
(PID.TID 0000.0001) //                  0.0: .
(PID.TID 0000.0001) // RANGE I (Lo:Hi:Step):(  -2:  53:   1)
(PID.TID 0000.0001) // RANGE J (Lo:Hi:Step):(  29:  -2:  -1)
(PID.TID 0000.0001) // RANGE K (Lo:Hi:Step):(   1:   1:   1)
(PID.TID 0000.0001) // =======================================================
(PID.TID 0000.0001) // =======================================================
(PID.TID 0000.0001) // END OF FIELD                                          =
(PID.TID 0000.0001) // =======================================================
(PID.TID 0000.0001) 
(PID.TID 0000.0001) // =======================================================
(PID.TID 0000.0001) // Field hFacC at iteration          1
(PID.TID 0000.0001) // CMIN =          1.000000000000000E+00
(PID.TID 0000.0001) // CMAX =          1.000000000000000E+00
(PID.TID 0000.0001) // CINT =          0.000000000000000E+00
(PID.TID 0000.0001) // SYMBOLS (CMIN->CMAX): -abcdefghijklmnopqrstuvwxyz+
(PID.TID 0000.0001) //                  0.0: .
(PID.TID 0000.0001) // RANGE I (Lo:Hi:Step):(  -2:  53:   1)
(PID.TID 0000.0001) // RANGE J (Lo:Hi:Step):(  29:  -2:  -1)
(PID.TID 0000.0001) // RANGE K (Lo:Hi:Step):(   1:   1:   1)
(PID.TID 0000.0001) // =======================================================
(PID.TID 0000.0001) // =======================================================
(PID.TID 0000.0001) // END OF FIELD                                          =
(PID.TID 0000.0001) // =======================================================
(PID.TID 0000.0001) 
(PID.TID 0000.0001) // =======================================================
(PID.TID 0000.0001) // Field hFacW at iteration          1
(PID.TID 0000.0001) // CMIN =          1.000000000000000E+00
(PID.TID 0000.0001) // CMAX =          1.000000000000000E+00
(PID.TID 0000.0001) // CINT =          0.000000000000000E+00
(PID.TID 0000.0001) // SYMBOLS (CMIN->CMAX): -abcdefghijklmnopqrstuvwxyz+
(PID.TID 0000.0001) //                  0.0: .
(PID.TID 0000.0001) // RANGE I (Lo:Hi:Step):(  -2:  53:   1)
(PID.TID 0000.0001) // RANGE J (Lo:Hi:Step):(  29:  -2:  -1)
(PID.TID 0000.0001) // RANGE K (Lo:Hi:Step):(   1:   1:   1)
(PID.TID 0000.0001) // =======================================================
(PID.TID 0000.0001) // =======================================================
(PID.TID 0000.0001) // END OF FIELD                                          =
(PID.TID 0000.0001) // =======================================================
(PID.TID 0000.0001) 
(PID.TID 0000.0001) // =======================================================
(PID.TID 0000.0001) // Field hFacS at iteration          1
(PID.TID 0000.0001) // CMIN =          1.000000000000000E+00
(PID.TID 0000.0001) // CMAX =          1.000000000000000E+00
(PID.TID 0000.0001) // CINT =          0.000000000000000E+00
(PID.TID 0000.0001) // SYMBOLS (CMIN->CMAX): -abcdefghijklmnopqrstuvwxyz+
(PID.TID 0000.0001) //                  0.0: .
(PID.TID 0000.0001) // RANGE I (Lo:Hi:Step):(  -2:  53:   1)
(PID.TID 0000.0001) // RANGE J (Lo:Hi:Step):(  29:  -2:  -1)
(PID.TID 0000.0001) // RANGE K (Lo:Hi:Step):(   1:   1:   1)
(PID.TID 0000.0001) // =======================================================
(PID.TID 0000.0001) // =======================================================
(PID.TID 0000.0001) // END OF FIELD                                          =
(PID.TID 0000.0001) // =======================================================
(PID.TID 0000.0001) 
(PID.TID 0000.0001) 
(PID.TID 0000.0001) // ===================================
(PID.TID 0000.0001) // GAD parameters :
(PID.TID 0000.0001) // ===================================
(PID.TID 0000.0001) tempAdvScheme =   /* Temp. Horiz.Advection scheme selector */
(PID.TID 0000.0001)                      33
(PID.TID 0000.0001)     ;
(PID.TID 0000.0001) tempVertAdvScheme =   /* Temp. Vert. Advection scheme selector */
(PID.TID 0000.0001)                      33
(PID.TID 0000.0001)     ;
(PID.TID 0000.0001) tempMultiDimAdvec =   /* use Muti-Dim Advec method for Temp */
(PID.TID 0000.0001)                   T
(PID.TID 0000.0001)     ;
(PID.TID 0000.0001) tempAdamsBashforth =   /* use Adams-Bashforth time-stepping for Temp */
(PID.TID 0000.0001)                   F
(PID.TID 0000.0001)     ;
(PID.TID 0000.0001) saltAdvScheme =   /* Salt. Horiz.advection scheme selector */
(PID.TID 0000.0001)                      33
(PID.TID 0000.0001)     ;
(PID.TID 0000.0001) saltVertAdvScheme =   /* Salt. Vert. Advection scheme selector */
(PID.TID 0000.0001)                      33
(PID.TID 0000.0001)     ;
(PID.TID 0000.0001) saltMultiDimAdvec =   /* use Muti-Dim Advec method for Salt */
(PID.TID 0000.0001)                   T
(PID.TID 0000.0001)     ;
(PID.TID 0000.0001) saltAdamsBashforth =   /* use Adams-Bashforth time-stepping for Salt */
(PID.TID 0000.0001)                   F
(PID.TID 0000.0001)     ;
(PID.TID 0000.0001) // ===================================
(PID.TID 0000.0001) ------------------------------------------------------------
(PID.TID 0000.0001) DIAGNOSTICS_SET_LEVELS: done
(PID.TID 0000.0001)  Total Nb of available Diagnostics: ndiagt= 301
(PID.TID 0000.0001)  write list of available Diagnostics to file: available_diagnostics.log
(PID.TID 0000.0001) SETDIAG: Allocate 40 Levels for Diagnostic # 267 UVELSLT
(PID.TID 0000.0001) SETDIAG: Allocate 40 Levels for Diagnostic # 268 VVELSLT
(PID.TID 0000.0001) SETDIAG: Allocate 40 Levels for Diagnostic # 269 WVELSLT
(PID.TID 0000.0001) SETDIAG: Allocate 40 Levels for Diagnostic # 264 UVELTH
(PID.TID 0000.0001) SETDIAG: Allocate 40 Levels for Diagnostic # 265 VVELTH
(PID.TID 0000.0001) SETDIAG: Allocate 40 Levels for Diagnostic # 266 WVELTH
(PID.TID 0000.0001)   space allocated for all diagnostics:   240 levels
(PID.TID 0000.0001) DIAGNOSTICS_SET_POINTERS: Set levels for Outp.Stream: spiceflx
(PID.TID 0000.0001)  Levels:       1.   2.   3.   4.   5.   6.   7.   8.   9.  10.  11.  12.  13.  14.  15.  16.  17.  18.  19.  20.
(PID.TID 0000.0001)  Levels:      21.  22.  23.  24.  25.  26.  27.  28.  29.  30.  31.  32.  33.  34.  35.  36.  37.  38.  39.  40.
(PID.TID 0000.0001) DIAGNOSTICS_SET_POINTERS: Set levels for Outp.Stream: thetaflx
(PID.TID 0000.0001)  Levels:       1.   2.   3.   4.   5.   6.   7.   8.   9.  10.  11.  12.  13.  14.  15.  16.  17.  18.  19.  20.
(PID.TID 0000.0001)  Levels:      21.  22.  23.  24.  25.  26.  27.  28.  29.  30.  31.  32.  33.  34.  35.  36.  37.  38.  39.  40.
(PID.TID 0000.0001) DIAGNOSTICS_SET_POINTERS: done
(PID.TID 0000.0001) ------------------------------------------------------------
(PID.TID 0000.0001) %MON fCori_max                    =   7.2900000000000E-05
(PID.TID 0000.0001) %MON fCori_min                    =   7.2900000000000E-05
(PID.TID 0000.0001) %MON fCori_mean                   =   7.2900000000001E-05
(PID.TID 0000.0001) %MON fCori_sd                     =   6.6407383064737E-19
(PID.TID 0000.0001) %MON fCoriG_max                   =   7.2900000000000E-05
(PID.TID 0000.0001) %MON fCoriG_min                   =   7.2900000000000E-05
(PID.TID 0000.0001) %MON fCoriG_mean                  =   7.2900000000001E-05
(PID.TID 0000.0001) %MON fCoriG_sd                    =   6.6407383064737E-19
(PID.TID 0000.0001) %MON fCoriCos_max                 =   0.0000000000000E+00
(PID.TID 0000.0001) %MON fCoriCos_min                 =   0.0000000000000E+00
(PID.TID 0000.0001) %MON fCoriCos_mean                =   0.0000000000000E+00
(PID.TID 0000.0001) %MON fCoriCos_sd                  =   0.0000000000000E+00
(PID.TID 0000.0001) // CG2D normalisation factor =           .5000000000000000104083409E-02
(PID.TID 0000.0001) 
(PID.TID 0000.0001) CONFIG_CHECK: OK
(PID.TID 0000.0001) // =======================================================
(PID.TID 0000.0001) // Model configuration
(PID.TID 0000.0001) // =======================================================
(PID.TID 0000.0001) //
(PID.TID 0000.0001) // "Physical" paramters ( PARM01 in namelist )
(PID.TID 0000.0001) //
(PID.TID 0000.0001) buoyancyRelation = OCEANIC
(PID.TID 0000.0001) fluidIsAir  =  /* fluid major constituent is Air */
(PID.TID 0000.0001)                   F
(PID.TID 0000.0001)     ;
(PID.TID 0000.0001) fluidIsWater=  /* fuild major constituent is Water */
(PID.TID 0000.0001)                   T
(PID.TID 0000.0001)     ;
(PID.TID 0000.0001) usingPCoords =  /* use p (or p*) vertical coordinate */
(PID.TID 0000.0001)                   F
(PID.TID 0000.0001)     ;
(PID.TID 0000.0001) usingZCoords =  /* use z (or z*) vertical coordinate */
(PID.TID 0000.0001)                   T
(PID.TID 0000.0001)     ;
(PID.TID 0000.0001) tRef =   /* Reference temperature profile ( oC or oK ) */
(PID.TID 0000.0001)                 2.900000000000000E+01,      /* K =  1 */
(PID.TID 0000.0001)                 2.800000000000000E+01,      /* K =  2 */
(PID.TID 0000.0001)                 2.700000000000000E+01,      /* K =  3 */
(PID.TID 0000.0001)                 2.600000000000000E+01,      /* K =  4 */
(PID.TID 0000.0001)                 2.500000000000000E+01,      /* K =  5 */
(PID.TID 0000.0001)                 2.400000000000000E+01,      /* K =  6 */
(PID.TID 0000.0001)                 2.300000000000000E+01,      /* K =  7 */
(PID.TID 0000.0001)                 2.200000000000000E+01,      /* K =  8 */
(PID.TID 0000.0001)                 2.100000000000000E+01,      /* K =  9 */
(PID.TID 0000.0001)                 2.000000000000000E+01,      /* K = 10 */
(PID.TID 0000.0001)                 1.900000000000000E+01,      /* K = 11 */
(PID.TID 0000.0001)                 1.800000000000000E+01,      /* K = 12 */
(PID.TID 0000.0001)                 1.700000000000000E+01,      /* K = 13 */
(PID.TID 0000.0001)                 1.600000000000000E+01,      /* K = 14 */
(PID.TID 0000.0001)                 1.500000000000000E+01,      /* K = 15 */
(PID.TID 0000.0001)                 1.400000000000000E+01,      /* K = 16 */
(PID.TID 0000.0001)                 1.300000000000000E+01,      /* K = 17 */
(PID.TID 0000.0001)                 1.200000000000000E+01,      /* K = 18 */
(PID.TID 0000.0001)                 1.100000000000000E+01,      /* K = 19 */
(PID.TID 0000.0001)                 1.000000000000000E+01,      /* K = 20 */
(PID.TID 0000.0001)                 9.000000000000000E+00,      /* K = 21 */
(PID.TID 0000.0001)                 8.000000000000000E+00,      /* K = 22 */
(PID.TID 0000.0001)                 7.000000000000000E+00,      /* K = 23 */
(PID.TID 0000.0001)                 6.000000000000000E+00,      /* K = 24 */
(PID.TID 0000.0001)                 5.000000000000000E+00,      /* K = 25 */
(PID.TID 0000.0001)                 4.000000000000000E+00,      /* K = 26 */
(PID.TID 0000.0001)                 3.000000000000000E+00,      /* K = 27 */
(PID.TID 0000.0001)                 2.000000000000000E+00,      /* K = 28 */
(PID.TID 0000.0001)                 1.000000000000000E+00,      /* K = 29 */
(PID.TID 0000.0001)                 0.000000000000000E+00,      /* K = 30 */
(PID.TID 0000.0001)                -1.000000000000000E+00,      /* K = 31 */
(PID.TID 0000.0001)                -2.000000000000000E+00,      /* K = 32 */
(PID.TID 0000.0001)                -3.000000000000000E+00,      /* K = 33 */
(PID.TID 0000.0001)                -4.000000000000000E+00,      /* K = 34 */
(PID.TID 0000.0001)                -5.000000000000000E+00,      /* K = 35 */
(PID.TID 0000.0001)                -6.000000000000000E+00,      /* K = 36 */
(PID.TID 0000.0001)                -7.000000000000000E+00,      /* K = 37 */
(PID.TID 0000.0001)                -8.000000000000000E+00,      /* K = 38 */
(PID.TID 0000.0001)                -9.000000000000000E+00,      /* K = 39 */
(PID.TID 0000.0001)                -1.000000000000000E+01       /* K = 40 */
(PID.TID 0000.0001)     ;
(PID.TID 0000.0001) sRef =   /* Reference salinity profile ( ppt ) */
(PID.TID 0000.0001)    40 @  0.000000000000000E+00              /* K =  1: 40 */
(PID.TID 0000.0001)     ;
(PID.TID 0000.0001) viscAh =   /* Lateral eddy viscosity ( m^2/s ) */
(PID.TID 0000.0001)                 3.000000000000000E+01
(PID.TID 0000.0001)     ;
(PID.TID 0000.0001) viscAhMax =   /* Maximum lateral eddy viscosity ( m^2/s ) */
(PID.TID 0000.0001)                 1.000000000000000E+21
(PID.TID 0000.0001)     ;
(PID.TID 0000.0001) viscAhGrid =   /* Grid dependent lateral eddy viscosity ( non-dim. ) */
(PID.TID 0000.0001)                 0.000000000000000E+00
(PID.TID 0000.0001)     ;
(PID.TID 0000.0001) useFullLeith =   /* Use Full Form of Leith Viscosity on/off flag*/
(PID.TID 0000.0001)                   T
(PID.TID 0000.0001)     ;
(PID.TID 0000.0001) viscC2leith =   /* Leith harmonic viscosity factor ( on grad(vort), non-dim. ) */
(PID.TID 0000.0001)                 5.000000000000000E+00
(PID.TID 0000.0001)     ;
(PID.TID 0000.0001) viscC2leithD =   /* Leith harmonic viscosity factor ( on grad(div), non-dim. ) */
(PID.TID 0000.0001)                 5.000000000000000E+00
(PID.TID 0000.0001)     ;
(PID.TID 0000.0001) viscC2smag =   /* Smagorinsky harmonic viscosity factor (non-dim.) */
(PID.TID 0000.0001)                 0.000000000000000E+00
(PID.TID 0000.0001)     ;
(PID.TID 0000.0001) viscA4 =   /* Lateral biharmonic viscosity ( m^4/s ) */
(PID.TID 0000.0001)                 0.000000000000000E+00
(PID.TID 0000.0001)     ;
(PID.TID 0000.0001) viscA4Max =   /* Maximum biharmonic viscosity ( m^2/s ) */
(PID.TID 0000.0001)                 1.000000000000000E+21
(PID.TID 0000.0001)     ;
(PID.TID 0000.0001) viscA4Grid =   /* Grid dependent biharmonic viscosity ( non-dim. ) */
(PID.TID 0000.0001)                 0.000000000000000E+00
(PID.TID 0000.0001)     ;
(PID.TID 0000.0001) viscC4leith =   /* Leith biharmonic viscosity factor ( on grad(vort), non-dom. ) */
(PID.TID 0000.0001)                 0.000000000000000E+00
(PID.TID 0000.0001)     ;
(PID.TID 0000.0001) viscC4leithD =   /* Leith biharmonic viscosity factor ( on grad(div), non-dom. ) */
(PID.TID 0000.0001)                 0.000000000000000E+00
(PID.TID 0000.0001)     ;
(PID.TID 0000.0001) no_slip_sides =  /* Viscous BCs: No-slip sides */
(PID.TID 0000.0001)                   F
(PID.TID 0000.0001)     ;
(PID.TID 0000.0001) viscAr =   /* Vertical eddy viscosity ( units of r^2/s ) */
(PID.TID 0000.0001)                 5.000000000000000E-03
(PID.TID 0000.0001)     ;
(PID.TID 0000.0001) no_slip_bottom =  /* Viscous BCs: No-slip bottom */
(PID.TID 0000.0001)                   F
(PID.TID 0000.0001)     ;
(PID.TID 0000.0001) diffKhT =   /* Laplacian diffusion of heat laterally ( m^2/s ) */
(PID.TID 0000.0001)                 0.000000000000000E+00
(PID.TID 0000.0001)     ;
(PID.TID 0000.0001) diffK4T =   /* Bihaarmonic diffusion of heat laterally ( m^4/s ) */
(PID.TID 0000.0001)                 0.000000000000000E+00
(PID.TID 0000.0001)     ;
(PID.TID 0000.0001) diffKhS =   /* Laplacian diffusion of salt laterally ( m^2/s ) */
(PID.TID 0000.0001)                 0.000000000000000E+00
(PID.TID 0000.0001)     ;
(PID.TID 0000.0001) diffK4S =   /* Bihaarmonic diffusion of salt laterally ( m^4/s ) */
(PID.TID 0000.0001)                 0.000000000000000E+00
(PID.TID 0000.0001)     ;
(PID.TID 0000.0001) diffKrNrT = /* vertical profile of vertical diffusion of Temp ( m^2/s )*/
(PID.TID 0000.0001)    40 @  0.000000000000000E+00              /* K =  1: 40 */
(PID.TID 0000.0001)     ;
(PID.TID 0000.0001) diffKrNrS = /* vertical profile of vertical diffusion of Salt ( m^2/s )*/
(PID.TID 0000.0001)    40 @  0.000000000000000E+00              /* K =  1: 40 */
(PID.TID 0000.0001)     ;
(PID.TID 0000.0001) diffKrBL79surf =   /* Surface diffusion for Bryan and Lewis 1979 ( m^2/s ) */
(PID.TID 0000.0001)                 0.000000000000000E+00
(PID.TID 0000.0001)     ;
(PID.TID 0000.0001) diffKrBL79deep =   /* Deep diffusion for Bryan and Lewis 1979 ( m^2/s ) */
(PID.TID 0000.0001)                 0.000000000000000E+00
(PID.TID 0000.0001)     ;
(PID.TID 0000.0001) diffKrBL79scl =   /* Depth scale for Bryan and Lewis 1979 ( m ) */
(PID.TID 0000.0001)                 2.000000000000000E+02
(PID.TID 0000.0001)     ;
(PID.TID 0000.0001) diffKrBL79Ho =   /* Turning depth for Bryan and Lewis 1979 ( m ) */
(PID.TID 0000.0001)                -2.000000000000000E+03
(PID.TID 0000.0001)     ;
(PID.TID 0000.0001)  Equation of State : eosType = LINEAR
(PID.TID 0000.0001) tAlpha =   /* Linear EOS thermal expansion coefficient ( 1/degree ) */
(PID.TID 0000.0001)                 2.000000000000000E-04
(PID.TID 0000.0001)     ;
(PID.TID 0000.0001) sBeta =   /* Linear EOS haline contraction coefficient ( 1/ppt ) */
(PID.TID 0000.0001)                 0.000000000000000E+00
(PID.TID 0000.0001)     ;
(PID.TID 0000.0001) rhonil =   /* Reference density ( kg/m^3 ) */
(PID.TID 0000.0001)                 1.035000000000000E+03
(PID.TID 0000.0001)     ;
(PID.TID 0000.0001) rhoConst =   /* Reference density ( kg/m^3 ) */
(PID.TID 0000.0001)                 1.035000000000000E+03
(PID.TID 0000.0001)     ;
(PID.TID 0000.0001) rhoConstFresh =   /* Reference density ( kg/m^3 ) */
(PID.TID 0000.0001)                 1.035000000000000E+03
(PID.TID 0000.0001)     ;
(PID.TID 0000.0001) gravity =   /* Gravitational acceleration ( m/s^2 ) */
(PID.TID 0000.0001)                 9.810000000000000E+00
(PID.TID 0000.0001)     ;
(PID.TID 0000.0001) gBaro =   /* Barotropic gravity ( m/s^2 ) */
(PID.TID 0000.0001)                 9.810000000000000E+00
(PID.TID 0000.0001)     ;
(PID.TID 0000.0001) rotationPeriod =   /* Rotation Period ( s ) */
(PID.TID 0000.0001)                 8.640000000000000E+04
(PID.TID 0000.0001)     ;
(PID.TID 0000.0001) omega =   /* Angular velocity ( rad/s ) */
(PID.TID 0000.0001)                 7.272205216643040E-05
(PID.TID 0000.0001)     ;
(PID.TID 0000.0001) f0 =   /* Reference coriolis parameter ( 1/s ) */
(PID.TID 0000.0001)                 7.290000000000000E-05
(PID.TID 0000.0001)     ;
(PID.TID 0000.0001) beta =   /* Beta ( 1/(m.s) ) */
(PID.TID 0000.0001)                 0.000000000000000E+00
(PID.TID 0000.0001)     ;
(PID.TID 0000.0001) freeSurfFac =   /* Implicit free surface factor */
(PID.TID 0000.0001)                 1.000000000000000E+00
(PID.TID 0000.0001)     ;
(PID.TID 0000.0001) implicitFreeSurface =   /* Implicit free surface on/off flag */
(PID.TID 0000.0001)                   T
(PID.TID 0000.0001)     ;
(PID.TID 0000.0001) rigidLid =   /* Rigid lid on/off flag */
(PID.TID 0000.0001)                   F
(PID.TID 0000.0001)     ;
(PID.TID 0000.0001) implicSurfPress =   /* Surface Pressure implicit factor (0-1)*/
(PID.TID 0000.0001)                 1.000000000000000E+00
(PID.TID 0000.0001)     ;
(PID.TID 0000.0001) implicDiv2Dflow =   /* Barot. Flow Div. implicit factor (0-1)*/
(PID.TID 0000.0001)                 1.000000000000000E+00
(PID.TID 0000.0001)     ;
(PID.TID 0000.0001) exactConserv =   /* Exact Volume Conservation on/off flag*/
(PID.TID 0000.0001)                   F
(PID.TID 0000.0001)     ;
(PID.TID 0000.0001) uniformLin_PhiSurf =   /* use uniform Bo_surf on/off flag*/
(PID.TID 0000.0001)                   T
(PID.TID 0000.0001)     ;
(PID.TID 0000.0001) nonlinFreeSurf =   /* Non-linear Free Surf. options (-1,0,1,2,3)*/
(PID.TID 0000.0001)                       0
(PID.TID 0000.0001)     ;
(PID.TID 0000.0001)      -1,0= Off ; 1,2,3= On, 2=+rescale gU,gV, 3=+update cg2d solv.
(PID.TID 0000.0001) hFacInf =   /* lower threshold for hFac (nonlinFreeSurf only)*/
(PID.TID 0000.0001)                 2.000000000000000E-01
(PID.TID 0000.0001)     ;
(PID.TID 0000.0001) hFacSup =   /* upper threshold for hFac (nonlinFreeSurf only)*/
(PID.TID 0000.0001)                 2.000000000000000E+00
(PID.TID 0000.0001)     ;
(PID.TID 0000.0001) select_rStar =   /* r* Coordinate options (not yet implemented)*/
(PID.TID 0000.0001)                       0
(PID.TID 0000.0001)     ;
(PID.TID 0000.0001) useRealFreshWaterFlux =   /* Real Fresh Water Flux on/off flag*/
(PID.TID 0000.0001)                   F
(PID.TID 0000.0001)     ;
(PID.TID 0000.0001) convertFW2Salt = /* convert F.W. Flux to Salt Flux (-1=use local S)(ppt)*/
(PID.TID 0000.0001)                 3.500000000000000E+01
(PID.TID 0000.0001)     ;
(PID.TID 0000.0001) nonHydrostatic =  /* Non-Hydrostatic on/off flag */
(PID.TID 0000.0001)                   F
(PID.TID 0000.0001)     ;
(PID.TID 0000.0001) momStepping =  /* Momentum equation on/off flag */
(PID.TID 0000.0001)                   T
(PID.TID 0000.0001)     ;
(PID.TID 0000.0001) momAdvection =  /* Momentum advection on/off flag */
(PID.TID 0000.0001)                   T
(PID.TID 0000.0001)     ;
(PID.TID 0000.0001) momViscosity =  /* Momentum viscosity on/off flag */
(PID.TID 0000.0001)                   T
(PID.TID 0000.0001)     ;
(PID.TID 0000.0001) momImplVertAdv =/* Momentum implicit vert. advection on/off*/
(PID.TID 0000.0001)                   F
(PID.TID 0000.0001)     ;
(PID.TID 0000.0001) implicitViscosity = /* Implicit viscosity on/off flag */
(PID.TID 0000.0001)                   T
(PID.TID 0000.0001)     ;
(PID.TID 0000.0001) useCoriolis =  /* Coriolis on/off flag */
(PID.TID 0000.0001)                   T
(PID.TID 0000.0001)     ;
(PID.TID 0000.0001) useCDscheme =  /* CD scheme on/off flag */
(PID.TID 0000.0001)                   F
(PID.TID 0000.0001)     ;
(PID.TID 0000.0001) useJamartWetPoints= /* Coriolis WetPoints method flag */
(PID.TID 0000.0001)                   T
(PID.TID 0000.0001)     ;
(PID.TID 0000.0001) useJamartMomAdv= /* V.I. Non-linear terms Jamart flag */
(PID.TID 0000.0001)                   F
(PID.TID 0000.0001)     ;
(PID.TID 0000.0001) SadournyCoriolis= /* Sadourny Coriolis discr. flag */
(PID.TID 0000.0001)                   F
(PID.TID 0000.0001)     ;
(PID.TID 0000.0001) upwindVorticity= /* Upwind bias vorticity flag */
(PID.TID 0000.0001)                   F
(PID.TID 0000.0001)     ;
(PID.TID 0000.0001) useAbsVorticity= /* Work with f+zeta in Coriolis */
(PID.TID 0000.0001)                   F
(PID.TID 0000.0001)     ;
(PID.TID 0000.0001) highOrderVorticity= /* High order interp. of vort. flag */
(PID.TID 0000.0001)                   F
(PID.TID 0000.0001)     ;
(PID.TID 0000.0001) momForcing =  /* Momentum forcing on/off flag */
(PID.TID 0000.0001)                   T
(PID.TID 0000.0001)     ;
(PID.TID 0000.0001) momPressureForcing =  /* Momentum pressure term on/off flag */
(PID.TID 0000.0001)                   T
(PID.TID 0000.0001)     ;
(PID.TID 0000.0001) staggerTimeStep =   /* Stagger time stepping on/off flag */
(PID.TID 0000.0001)                   T
(PID.TID 0000.0001)     ;
(PID.TID 0000.0001) multiDimAdvection =   /* enable/disable Multi-Dim Advection */
(PID.TID 0000.0001)                   T
(PID.TID 0000.0001)     ;
(PID.TID 0000.0001) useMultiDimAdvec =   /* Multi-Dim Advection is/is-not used */
(PID.TID 0000.0001)                   T
(PID.TID 0000.0001)     ;
(PID.TID 0000.0001) implicitDiffusion =/* Implicit Diffusion on/off flag */
(PID.TID 0000.0001)                   T
(PID.TID 0000.0001)     ;
(PID.TID 0000.0001) tempStepping =  /* Temperature equation on/off flag */
(PID.TID 0000.0001)                   T
(PID.TID 0000.0001)     ;
(PID.TID 0000.0001) tempAdvection=  /* Temperature advection on/off flag */
(PID.TID 0000.0001)                   T
(PID.TID 0000.0001)     ;
(PID.TID 0000.0001) tempImplVertAdv =/* Temp. implicit vert. advection on/off */
(PID.TID 0000.0001)                   F
(PID.TID 0000.0001)     ;
(PID.TID 0000.0001) tempForcing  =  /* Temperature forcing on/off flag */
(PID.TID 0000.0001)                   T
(PID.TID 0000.0001)     ;
(PID.TID 0000.0001) saltStepping =  /* Salinity equation on/off flag */
(PID.TID 0000.0001)                   T
(PID.TID 0000.0001)     ;
(PID.TID 0000.0001) saltAdvection=  /* Salinity advection on/off flag */
(PID.TID 0000.0001)                   T
(PID.TID 0000.0001)     ;
(PID.TID 0000.0001) saltImplVertAdv =/* Sali. implicit vert. advection on/off */
(PID.TID 0000.0001)                   F
(PID.TID 0000.0001)     ;
(PID.TID 0000.0001) saltForcing  =  /* Salinity forcing on/off flag */
(PID.TID 0000.0001)                   T
(PID.TID 0000.0001)     ;
(PID.TID 0000.0001) //
(PID.TID 0000.0001) // Elliptic solver(s) paramters ( PARM02 in namelist )
(PID.TID 0000.0001) //
(PID.TID 0000.0001) cg2dMaxIters =   /* Upper limit on 2d con. grad iterations  */
(PID.TID 0000.0001)                    1000
(PID.TID 0000.0001)     ;
(PID.TID 0000.0001) cg2dChkResFreq =   /* 2d con. grad convergence test frequency */
(PID.TID 0000.0001)                       1
(PID.TID 0000.0001)     ;
(PID.TID 0000.0001) cg2dTargetResidual =   /* 2d con. grad target residual  */
(PID.TID 0000.0001)                 9.999999999999999E-12
(PID.TID 0000.0001)     ;
(PID.TID 0000.0001) cg2dTargetResWunit =   /* CG2d target residual [W units] */
(PID.TID 0000.0001)                -1.000000000000000E+00
(PID.TID 0000.0001)     ;
(PID.TID 0000.0001) cg2dPreCondFreq =   /* Freq. for updating cg2d preconditioner */
(PID.TID 0000.0001)                       1
(PID.TID 0000.0001)     ;
(PID.TID 0000.0001) //
(PID.TID 0000.0001) // Time stepping paramters ( PARM03 in namelist )
(PID.TID 0000.0001) //
(PID.TID 0000.0001) nIter0 =   /* Base timestep number  */
(PID.TID 0000.0001)                       0
(PID.TID 0000.0001)     ;
(PID.TID 0000.0001) nTimeSteps =   /* Number of timesteps */
(PID.TID 0000.0001)                      72
(PID.TID 0000.0001)     ;
(PID.TID 0000.0001) deltatTmom =   /* Momentum equation timestep ( s ) */
(PID.TID 0000.0001)                 1.200000000000000E+03
(PID.TID 0000.0001)     ;
(PID.TID 0000.0001) deltaTfreesurf =   /* FreeSurface equation timestep ( s ) */
(PID.TID 0000.0001)                 1.200000000000000E+03
(PID.TID 0000.0001)     ;
(PID.TID 0000.0001) dTtracerLev =   /* Tracer equation timestep ( s ) */
(PID.TID 0000.0001)    40 @  1.200000000000000E+03              /* K =  1: 40 */
(PID.TID 0000.0001)     ;
(PID.TID 0000.0001) deltatTClock  =   /* Model clock timestep ( s ) */
(PID.TID 0000.0001)                 1.200000000000000E+03
(PID.TID 0000.0001)     ;
(PID.TID 0000.0001) cAdjFreq =   /* Convective adjustment interval ( s ) */
(PID.TID 0000.0001)                 0.000000000000000E+00
(PID.TID 0000.0001)     ;
(PID.TID 0000.0001) forcing_In_AB =   /* put T,S Forcing in Adams-Bash. stepping */
(PID.TID 0000.0001)                   T
(PID.TID 0000.0001)     ;
(PID.TID 0000.0001) abeps =   /* Adams-Bashforth stabilizing weight */
(PID.TID 0000.0001)                 1.000000000000000E-02
(PID.TID 0000.0001)     ;
(PID.TID 0000.0001) startTime =   /* Run start time ( s ). */
(PID.TID 0000.0001)                 0.000000000000000E+00
(PID.TID 0000.0001)     ;
(PID.TID 0000.0001) endTime =   /* Integration ending time ( s ). */
(PID.TID 0000.0001)                 8.640000000000000E+04
(PID.TID 0000.0001)     ;
(PID.TID 0000.0001) pChkPtFreq =   /* Permanent restart/checkpoint file interval ( s ). */
(PID.TID 0000.0001)                 4.320000000000000E+04
(PID.TID 0000.0001)     ;
(PID.TID 0000.0001) chkPtFreq =   /* Rolling restart/checkpoint file interval ( s ). */
(PID.TID 0000.0001)                 0.000000000000000E+00
(PID.TID 0000.0001)     ;
(PID.TID 0000.0001) pickup_write_mdsio =   /* Model IO flag. */
(PID.TID 0000.0001)                   F
(PID.TID 0000.0001)     ;
(PID.TID 0000.0001) pickup_read_mdsio =   /* Model IO flag. */
(PID.TID 0000.0001)                   F
(PID.TID 0000.0001)     ;
(PID.TID 0000.0001) pickup_write_mnc =   /* Model IO flag. */
(PID.TID 0000.0001)                   T
(PID.TID 0000.0001)     ;
(PID.TID 0000.0001) pickup_read_mnc =   /* Model IO flag. */
(PID.TID 0000.0001)                   T
(PID.TID 0000.0001)     ;
(PID.TID 0000.0001) pickup_write_immed =   /* Model IO flag. */
(PID.TID 0000.0001)                   F
(PID.TID 0000.0001)     ;
(PID.TID 0000.0001) dumpFreq =   /* Model state write out interval ( s ). */
(PID.TID 0000.0001)                 7.200000000000000E+03
(PID.TID 0000.0001)     ;
(PID.TID 0000.0001) snapshot_mdsio =   /* Model IO flag. */
(PID.TID 0000.0001)                   F
(PID.TID 0000.0001)     ;
(PID.TID 0000.0001) snapshot_mnc =   /* Model IO flag. */
(PID.TID 0000.0001)                   T
(PID.TID 0000.0001)     ;
(PID.TID 0000.0001) monitorFreq =   /* Monitor output interval ( s ). */
(PID.TID 0000.0001)                 1.200000000000000E+03
(PID.TID 0000.0001)     ;
(PID.TID 0000.0001) monitor_stdio =   /* Model IO flag. */
(PID.TID 0000.0001)                   T
(PID.TID 0000.0001)     ;
(PID.TID 0000.0001) monitor_mnc =   /* Model IO flag. */
(PID.TID 0000.0001)                   F
(PID.TID 0000.0001)     ;
(PID.TID 0000.0001) externForcingPeriod =   /* forcing period (s) */
(PID.TID 0000.0001)                 0.000000000000000E+00
(PID.TID 0000.0001)     ;
(PID.TID 0000.0001) externForcingCycle =   /* period of the cyle (s). */
(PID.TID 0000.0001)                 0.000000000000000E+00
(PID.TID 0000.0001)     ;
(PID.TID 0000.0001) tauThetaClimRelax =   /* relaxation time scale (s) */
(PID.TID 0000.0001)                 0.000000000000000E+00
(PID.TID 0000.0001)     ;
(PID.TID 0000.0001) tauSaltClimRelax =   /* relaxation time scale (s) */
(PID.TID 0000.0001)                 0.000000000000000E+00
(PID.TID 0000.0001)     ;
(PID.TID 0000.0001) latBandClimRelax =   /* max. Lat. where relaxation */
(PID.TID 0000.0001)                 6.760000000000000E+05
(PID.TID 0000.0001)     ;
(PID.TID 0000.0001) //
(PID.TID 0000.0001) // Gridding paramters ( PARM04 in namelist )
(PID.TID 0000.0001) //
(PID.TID 0000.0001) usingCartesianGrid =   /* Cartesian coordinates flag ( True / False ) */
(PID.TID 0000.0001)                   T
(PID.TID 0000.0001)     ;
(PID.TID 0000.0001) usingSphericalPolarGrid =   /* Spherical coordinates flag ( True / False ) */
(PID.TID 0000.0001)                   F
(PID.TID 0000.0001)     ;
(PID.TID 0000.0001) usingCylindricalGrid =   /* Spherical coordinates flag ( True / False ) */
(PID.TID 0000.0001)                   F
(PID.TID 0000.0001)     ;
(PID.TID 0000.0001) groundAtK1 =   /* Lower Boundary (ground) at the surface(k=1) ( T / F ) */
(PID.TID 0000.0001)                   F
(PID.TID 0000.0001)     ;
(PID.TID 0000.0001) Ro_SeaLevel =   /* r(1) ( units of r ) */
(PID.TID 0000.0001)                 0.000000000000000E+00
(PID.TID 0000.0001)     ;
(PID.TID 0000.0001) rkFac =   /* minus Vertical index orientation  */
(PID.TID 0000.0001)                 1.000000000000000E+00
(PID.TID 0000.0001)     ;
(PID.TID 0000.0001) horiVertRatio =   /* Ratio on units : Horiz - Vertical */
(PID.TID 0000.0001)                 1.000000000000000E+00
(PID.TID 0000.0001)     ;
(PID.TID 0000.0001) drC =   /* C spacing ( units of r ) */
(PID.TID 0000.0001)                 2.500000000000000E+00,      /* K =  1 */
(PID.TID 0000.0001)    39 @  5.000000000000000E+00              /* K =  2: 40 */
(PID.TID 0000.0001)     ;
(PID.TID 0000.0001) drF =   /* W spacing ( units of r ) */
(PID.TID 0000.0001)    40 @  5.000000000000000E+00              /* K =  1: 40 */
(PID.TID 0000.0001)     ;
(PID.TID 0000.0001) delX =   /* U spacing ( m - cartesian, degrees - spherical ) */
(PID.TID 0000.0001)    50 @  1.000000000000000E+03              /* I =  1: 50 */
(PID.TID 0000.0001)     ;
(PID.TID 0000.0001) delY =   /* V spacing ( m - cartesian, degrees - spherical ) */
(PID.TID 0000.0001)    26 @  1.000000000000000E+03              /* J =  1: 26 */
(PID.TID 0000.0001)     ;
(PID.TID 0000.0001) phiMin =    /* South edge (ignored - cartesian, degrees - spherical ) */
(PID.TID 0000.0001)                 0.000000000000000E+00
(PID.TID 0000.0001)     ;
(PID.TID 0000.0001) thetaMin =    /* West edge ( ignored - cartesian, degrees - spherical ) */
(PID.TID 0000.0001)                 0.000000000000000E+00
(PID.TID 0000.0001)     ;
(PID.TID 0000.0001) rSphere =    /* Radius ( ignored - cartesian, m - spherical ) */
(PID.TID 0000.0001)                 6.370000000000000E+06
(PID.TID 0000.0001)     ;
(PID.TID 0000.0001) xcoord =   /* P-point X coord ( m - cartesian, degrees - spherical ) */
(PID.TID 0000.0001)                 5.000000000000000E+02,      /* I =  1 */
(PID.TID 0000.0001)                 1.500000000000000E+03,      /* I =  2 */
(PID.TID 0000.0001)                 2.500000000000000E+03,      /* I =  3 */
(PID.TID 0000.0001)                 3.500000000000000E+03,      /* I =  4 */
(PID.TID 0000.0001)                 4.500000000000000E+03,      /* I =  5 */
(PID.TID 0000.0001)                 5.500000000000000E+03,      /* I =  6 */
(PID.TID 0000.0001)                 6.500000000000000E+03,      /* I =  7 */
(PID.TID 0000.0001)                 7.500000000000000E+03,      /* I =  8 */
(PID.TID 0000.0001)                 8.500000000000000E+03,      /* I =  9 */
(PID.TID 0000.0001)                 9.500000000000000E+03,      /* I = 10 */
(PID.TID 0000.0001)                 1.050000000000000E+04,      /* I = 11 */
(PID.TID 0000.0001)                 1.150000000000000E+04,      /* I = 12 */
(PID.TID 0000.0001)                 1.250000000000000E+04,      /* I = 13 */
(PID.TID 0000.0001)                 1.350000000000000E+04,      /* I = 14 */
(PID.TID 0000.0001)                 1.450000000000000E+04,      /* I = 15 */
(PID.TID 0000.0001)                 1.550000000000000E+04,      /* I = 16 */
(PID.TID 0000.0001)                 1.650000000000000E+04,      /* I = 17 */
(PID.TID 0000.0001)                 1.750000000000000E+04,      /* I = 18 */
(PID.TID 0000.0001)                 1.850000000000000E+04,      /* I = 19 */
(PID.TID 0000.0001)                 1.950000000000000E+04,      /* I = 20 */
(PID.TID 0000.0001)                 2.050000000000000E+04,      /* I = 21 */
(PID.TID 0000.0001)                 2.150000000000000E+04,      /* I = 22 */
(PID.TID 0000.0001)                 2.250000000000000E+04,      /* I = 23 */
(PID.TID 0000.0001)                 2.350000000000000E+04,      /* I = 24 */
(PID.TID 0000.0001)                 2.450000000000000E+04,      /* I = 25 */
(PID.TID 0000.0001)                 2.550000000000000E+04,      /* I = 26 */
(PID.TID 0000.0001)                 2.650000000000000E+04,      /* I = 27 */
(PID.TID 0000.0001)                 2.750000000000000E+04,      /* I = 28 */
(PID.TID 0000.0001)                 2.850000000000000E+04,      /* I = 29 */
(PID.TID 0000.0001)                 2.950000000000000E+04,      /* I = 30 */
(PID.TID 0000.0001)                 3.050000000000000E+04,      /* I = 31 */
(PID.TID 0000.0001)                 3.150000000000000E+04,      /* I = 32 */
(PID.TID 0000.0001)                 3.250000000000000E+04,      /* I = 33 */
(PID.TID 0000.0001)                 3.350000000000000E+04,      /* I = 34 */
(PID.TID 0000.0001)                 3.450000000000000E+04,      /* I = 35 */
(PID.TID 0000.0001)                 3.550000000000000E+04,      /* I = 36 */
(PID.TID 0000.0001)                 3.650000000000000E+04,      /* I = 37 */
(PID.TID 0000.0001)                 3.750000000000000E+04,      /* I = 38 */
(PID.TID 0000.0001)                 3.850000000000000E+04,      /* I = 39 */
(PID.TID 0000.0001)                 3.950000000000000E+04,      /* I = 40 */
(PID.TID 0000.0001)                 4.050000000000000E+04,      /* I = 41 */
(PID.TID 0000.0001)                 4.150000000000000E+04,      /* I = 42 */
(PID.TID 0000.0001)                 4.250000000000000E+04,      /* I = 43 */
(PID.TID 0000.0001)                 4.350000000000000E+04,      /* I = 44 */
(PID.TID 0000.0001)                 4.450000000000000E+04,      /* I = 45 */
(PID.TID 0000.0001)                 4.550000000000000E+04,      /* I = 46 */
(PID.TID 0000.0001)                 4.650000000000000E+04,      /* I = 47 */
(PID.TID 0000.0001)                 4.750000000000000E+04,      /* I = 48 */
(PID.TID 0000.0001)                 4.850000000000000E+04,      /* I = 49 */
(PID.TID 0000.0001)                 4.950000000000000E+04       /* I = 50 */
(PID.TID 0000.0001)     ;
(PID.TID 0000.0001) ycoord =   /* P-point Y coord ( m - cartesian, degrees - spherical ) */
(PID.TID 0000.0001)                 5.000000000000000E+02,      /* J =  1 */
(PID.TID 0000.0001)                 1.500000000000000E+03,      /* J =  2 */
(PID.TID 0000.0001)                 2.500000000000000E+03,      /* J =  3 */
(PID.TID 0000.0001)                 3.500000000000000E+03,      /* J =  4 */
(PID.TID 0000.0001)                 4.500000000000000E+03,      /* J =  5 */
(PID.TID 0000.0001)                 5.500000000000000E+03,      /* J =  6 */
(PID.TID 0000.0001)                 6.500000000000000E+03,      /* J =  7 */
(PID.TID 0000.0001)                 7.500000000000000E+03,      /* J =  8 */
(PID.TID 0000.0001)                 8.500000000000000E+03,      /* J =  9 */
(PID.TID 0000.0001)                 9.500000000000000E+03,      /* J = 10 */
(PID.TID 0000.0001)                 1.050000000000000E+04,      /* J = 11 */
(PID.TID 0000.0001)                 1.150000000000000E+04,      /* J = 12 */
(PID.TID 0000.0001)                 1.250000000000000E+04,      /* J = 13 */
(PID.TID 0000.0001)                 1.350000000000000E+04,      /* J = 14 */
(PID.TID 0000.0001)                 1.450000000000000E+04,      /* J = 15 */
(PID.TID 0000.0001)                 1.550000000000000E+04,      /* J = 16 */
(PID.TID 0000.0001)                 1.650000000000000E+04,      /* J = 17 */
(PID.TID 0000.0001)                 1.750000000000000E+04,      /* J = 18 */
(PID.TID 0000.0001)                 1.850000000000000E+04,      /* J = 19 */
(PID.TID 0000.0001)                 1.950000000000000E+04,      /* J = 20 */
(PID.TID 0000.0001)                 2.050000000000000E+04,      /* J = 21 */
(PID.TID 0000.0001)                 2.150000000000000E+04,      /* J = 22 */
(PID.TID 0000.0001)                 2.250000000000000E+04,      /* J = 23 */
(PID.TID 0000.0001)                 2.350000000000000E+04,      /* J = 24 */
(PID.TID 0000.0001)                 2.450000000000000E+04,      /* J = 25 */
(PID.TID 0000.0001)                 2.550000000000000E+04       /* J = 26 */
(PID.TID 0000.0001)     ;
(PID.TID 0000.0001) rcoord =   /* P-point R coordinate (  units of r ) */
(PID.TID 0000.0001)                -2.500000000000000E+00,      /* K =  1 */
(PID.TID 0000.0001)                -7.500000000000000E+00,      /* K =  2 */
(PID.TID 0000.0001)                -1.250000000000000E+01,      /* K =  3 */
(PID.TID 0000.0001)                -1.750000000000000E+01,      /* K =  4 */
(PID.TID 0000.0001)                -2.250000000000000E+01,      /* K =  5 */
(PID.TID 0000.0001)                -2.750000000000000E+01,      /* K =  6 */
(PID.TID 0000.0001)                -3.250000000000000E+01,      /* K =  7 */
(PID.TID 0000.0001)                -3.750000000000000E+01,      /* K =  8 */
(PID.TID 0000.0001)                -4.250000000000000E+01,      /* K =  9 */
(PID.TID 0000.0001)                -4.750000000000000E+01,      /* K = 10 */
(PID.TID 0000.0001)                -5.250000000000000E+01,      /* K = 11 */
(PID.TID 0000.0001)                -5.750000000000000E+01,      /* K = 12 */
(PID.TID 0000.0001)                -6.250000000000000E+01,      /* K = 13 */
(PID.TID 0000.0001)                -6.750000000000000E+01,      /* K = 14 */
(PID.TID 0000.0001)                -7.250000000000000E+01,      /* K = 15 */
(PID.TID 0000.0001)                -7.750000000000000E+01,      /* K = 16 */
(PID.TID 0000.0001)                -8.250000000000000E+01,      /* K = 17 */
(PID.TID 0000.0001)                -8.750000000000000E+01,      /* K = 18 */
(PID.TID 0000.0001)                -9.250000000000000E+01,      /* K = 19 */
(PID.TID 0000.0001)                -9.750000000000000E+01,      /* K = 20 */
(PID.TID 0000.0001)                -1.025000000000000E+02,      /* K = 21 */
(PID.TID 0000.0001)                -1.075000000000000E+02,      /* K = 22 */
(PID.TID 0000.0001)                -1.125000000000000E+02,      /* K = 23 */
(PID.TID 0000.0001)                -1.175000000000000E+02,      /* K = 24 */
(PID.TID 0000.0001)                -1.225000000000000E+02,      /* K = 25 */
(PID.TID 0000.0001)                -1.275000000000000E+02,      /* K = 26 */
(PID.TID 0000.0001)                -1.325000000000000E+02,      /* K = 27 */
(PID.TID 0000.0001)                -1.375000000000000E+02,      /* K = 28 */
(PID.TID 0000.0001)                -1.425000000000000E+02,      /* K = 29 */
(PID.TID 0000.0001)                -1.475000000000000E+02,      /* K = 30 */
(PID.TID 0000.0001)                -1.525000000000000E+02,      /* K = 31 */
(PID.TID 0000.0001)                -1.575000000000000E+02,      /* K = 32 */
(PID.TID 0000.0001)                -1.625000000000000E+02,      /* K = 33 */
(PID.TID 0000.0001)                -1.675000000000000E+02,      /* K = 34 */
(PID.TID 0000.0001)                -1.725000000000000E+02,      /* K = 35 */
(PID.TID 0000.0001)                -1.775000000000000E+02,      /* K = 36 */
(PID.TID 0000.0001)                -1.825000000000000E+02,      /* K = 37 */
(PID.TID 0000.0001)                -1.875000000000000E+02,      /* K = 38 */
(PID.TID 0000.0001)                -1.925000000000000E+02,      /* K = 39 */
(PID.TID 0000.0001)                -1.975000000000000E+02       /* K = 40 */
(PID.TID 0000.0001)     ;
(PID.TID 0000.0001) rF =   /* W-Interf. R coordinate (  units of r ) */
(PID.TID 0000.0001)                 0.000000000000000E+00,      /* K =  1 */
(PID.TID 0000.0001)                -5.000000000000000E+00,      /* K =  2 */
(PID.TID 0000.0001)                -1.000000000000000E+01,      /* K =  3 */
(PID.TID 0000.0001)                -1.500000000000000E+01,      /* K =  4 */
(PID.TID 0000.0001)                -2.000000000000000E+01,      /* K =  5 */
(PID.TID 0000.0001)                -2.500000000000000E+01,      /* K =  6 */
(PID.TID 0000.0001)                -3.000000000000000E+01,      /* K =  7 */
(PID.TID 0000.0001)                -3.500000000000000E+01,      /* K =  8 */
(PID.TID 0000.0001)                -4.000000000000000E+01,      /* K =  9 */
(PID.TID 0000.0001)                -4.500000000000000E+01,      /* K = 10 */
(PID.TID 0000.0001)                -5.000000000000000E+01,      /* K = 11 */
(PID.TID 0000.0001)                -5.500000000000000E+01,      /* K = 12 */
(PID.TID 0000.0001)                -6.000000000000000E+01,      /* K = 13 */
(PID.TID 0000.0001)                -6.500000000000000E+01,      /* K = 14 */
(PID.TID 0000.0001)                -7.000000000000000E+01,      /* K = 15 */
(PID.TID 0000.0001)                -7.500000000000000E+01,      /* K = 16 */
(PID.TID 0000.0001)                -8.000000000000000E+01,      /* K = 17 */
(PID.TID 0000.0001)                -8.500000000000000E+01,      /* K = 18 */
(PID.TID 0000.0001)                -9.000000000000000E+01,      /* K = 19 */
(PID.TID 0000.0001)                -9.500000000000000E+01,      /* K = 20 */
(PID.TID 0000.0001)                -1.000000000000000E+02,      /* K = 21 */
(PID.TID 0000.0001)                -1.050000000000000E+02,      /* K = 22 */
(PID.TID 0000.0001)                -1.100000000000000E+02,      /* K = 23 */
(PID.TID 0000.0001)                -1.150000000000000E+02,      /* K = 24 */
(PID.TID 0000.0001)                -1.200000000000000E+02,      /* K = 25 */
(PID.TID 0000.0001)                -1.250000000000000E+02,      /* K = 26 */
(PID.TID 0000.0001)                -1.300000000000000E+02,      /* K = 27 */
(PID.TID 0000.0001)                -1.350000000000000E+02,      /* K = 28 */
(PID.TID 0000.0001)                -1.400000000000000E+02,      /* K = 29 */
(PID.TID 0000.0001)                -1.450000000000000E+02,      /* K = 30 */
(PID.TID 0000.0001)                -1.500000000000000E+02,      /* K = 31 */
(PID.TID 0000.0001)                -1.550000000000000E+02,      /* K = 32 */
(PID.TID 0000.0001)                -1.600000000000000E+02,      /* K = 33 */
(PID.TID 0000.0001)                -1.650000000000000E+02,      /* K = 34 */
(PID.TID 0000.0001)                -1.700000000000000E+02,      /* K = 35 */
(PID.TID 0000.0001)                -1.750000000000000E+02,      /* K = 36 */
(PID.TID 0000.0001)                -1.800000000000000E+02,      /* K = 37 */
(PID.TID 0000.0001)                -1.850000000000000E+02,      /* K = 38 */
(PID.TID 0000.0001)                -1.900000000000000E+02,      /* K = 39 */
(PID.TID 0000.0001)                -1.950000000000000E+02,      /* K = 40 */
(PID.TID 0000.0001)                -2.000000000000000E+02       /* K = 41 */
(PID.TID 0000.0001)     ;
(PID.TID 0000.0001) dxF =  /* dxF(:,1,:,1) ( m - cartesian, degrees - spherical ) */
(PID.TID 0000.0001)    50 @  1.000000000000000E+03              /* I =  1: 50 */
(PID.TID 0000.0001)     ;
(PID.TID 0000.0001) dxF =  /* dxF(1,:,1,:) ( m - cartesian, degrees - spherical ) */
(PID.TID 0000.0001)    26 @  1.000000000000000E+03              /* J =  1: 26 */
(PID.TID 0000.0001)     ;
(PID.TID 0000.0001) dyF =  /* dyF(:,1,:,1) ( m - cartesian, degrees - spherical ) */
(PID.TID 0000.0001)    50 @  1.000000000000000E+03              /* I =  1: 50 */
(PID.TID 0000.0001)     ;
(PID.TID 0000.0001) dyF =  /* dyF(1,:,1,:) ( m - cartesian, degrees - spherical ) */
(PID.TID 0000.0001)    26 @  1.000000000000000E+03              /* J =  1: 26 */
(PID.TID 0000.0001)     ;
(PID.TID 0000.0001) dxG =  /* dxG(:,1,:,1) ( m - cartesian, degrees - spherical ) */
(PID.TID 0000.0001)    50 @  1.000000000000000E+03              /* I =  1: 50 */
(PID.TID 0000.0001)     ;
(PID.TID 0000.0001) dxG =  /* dxG(1,:,1,:) ( m - cartesian, degrees - spherical ) */
(PID.TID 0000.0001)    26 @  1.000000000000000E+03              /* J =  1: 26 */
(PID.TID 0000.0001)     ;
(PID.TID 0000.0001) dyG =  /* dyG(:,1,:,1) ( m - cartesian, degrees - spherical ) */
(PID.TID 0000.0001)    50 @  1.000000000000000E+03              /* I =  1: 50 */
(PID.TID 0000.0001)     ;
(PID.TID 0000.0001) dyG =  /* dyG(1,:,1,:) ( m - cartesian, degrees - spherical ) */
(PID.TID 0000.0001)    26 @  1.000000000000000E+03              /* J =  1: 26 */
(PID.TID 0000.0001)     ;
(PID.TID 0000.0001) dxC =  /* dxC(:,1,:,1) ( m - cartesian, degrees - spherical ) */
(PID.TID 0000.0001)    50 @  1.000000000000000E+03              /* I =  1: 50 */
(PID.TID 0000.0001)     ;
(PID.TID 0000.0001) dxC =  /* dxC(1,:,1,:) ( m - cartesian, degrees - spherical ) */
(PID.TID 0000.0001)    26 @  1.000000000000000E+03              /* J =  1: 26 */
(PID.TID 0000.0001)     ;
(PID.TID 0000.0001) dyC =  /* dyC(:,1,:,1) ( m - cartesian, degrees - spherical ) */
(PID.TID 0000.0001)    50 @  1.000000000000000E+03              /* I =  1: 50 */
(PID.TID 0000.0001)     ;
(PID.TID 0000.0001) dyC =  /* dyC(1,:,1,:) ( m - cartesian, degrees - spherical ) */
(PID.TID 0000.0001)    26 @  1.000000000000000E+03              /* J =  1: 26 */
(PID.TID 0000.0001)     ;
(PID.TID 0000.0001) dxV =  /* dxV(:,1,:,1) ( m - cartesian, degrees - spherical ) */
(PID.TID 0000.0001)    50 @  1.000000000000000E+03              /* I =  1: 50 */
(PID.TID 0000.0001)     ;
(PID.TID 0000.0001) dxV =  /* dxV(1,:,1,:) ( m - cartesian, degrees - spherical ) */
(PID.TID 0000.0001)    26 @  1.000000000000000E+03              /* J =  1: 26 */
(PID.TID 0000.0001)     ;
(PID.TID 0000.0001) dyU =  /* dyU(:,1,:,1) ( m - cartesian, degrees - spherical ) */
(PID.TID 0000.0001)    50 @  1.000000000000000E+03              /* I =  1: 50 */
(PID.TID 0000.0001)     ;
(PID.TID 0000.0001) dyU =  /* dyU(1,:,1,:) ( m - cartesian, degrees - spherical ) */
(PID.TID 0000.0001)    26 @  1.000000000000000E+03              /* J =  1: 26 */
(PID.TID 0000.0001)     ;
(PID.TID 0000.0001) rA =  /* rA(:,1,:,1) ( m - cartesian, degrees - spherical ) */
(PID.TID 0000.0001)    50 @  1.000000000000000E+06              /* I =  1: 50 */
(PID.TID 0000.0001)     ;
(PID.TID 0000.0001) rA =  /* rA(1,:,1,:) ( m - cartesian, degrees - spherical ) */
(PID.TID 0000.0001)    26 @  1.000000000000000E+06              /* J =  1: 26 */
(PID.TID 0000.0001)     ;
(PID.TID 0000.0001) rAw =  /* rAw(:,1,:,1) ( m - cartesian, degrees - spherical ) */
(PID.TID 0000.0001)    50 @  1.000000000000000E+06              /* I =  1: 50 */
(PID.TID 0000.0001)     ;
(PID.TID 0000.0001) rAw =  /* rAw(1,:,1,:) ( m - cartesian, degrees - spherical ) */
(PID.TID 0000.0001)    26 @  1.000000000000000E+06              /* J =  1: 26 */
(PID.TID 0000.0001)     ;
(PID.TID 0000.0001) rAs =  /* rAs(:,1,:,1) ( m - cartesian, degrees - spherical ) */
(PID.TID 0000.0001)    50 @  1.000000000000000E+06              /* I =  1: 50 */
(PID.TID 0000.0001)     ;
(PID.TID 0000.0001) rAs =  /* rAs(1,:,1,:) ( m - cartesian, degrees - spherical ) */
(PID.TID 0000.0001)    26 @  1.000000000000000E+06              /* J =  1: 26 */
(PID.TID 0000.0001)     ;
(PID.TID 0000.0001) 
(PID.TID 0000.0001)  MDSREADFIELD: opening global file: thetaInitial.bin
(PID.TID 0000.0001) // =======================================================
(PID.TID 0000.0001) // Field Initial Temperature at iteration          1
(PID.TID 0000.0001) // CMIN =          1.697960818898681E+01
(PID.TID 0000.0001) // CMAX =          1.702039187270994E+01
(PID.TID 0000.0001) // CINT =          1.510506804560531E-03
(PID.TID 0000.0001) // SYMBOLS (CMIN->CMAX): -abcdefghijklmnopqrstuvwxyz+
(PID.TID 0000.0001) //                  0.0: .
(PID.TID 0000.0001) // RANGE I (Lo:Hi:Step):(   1:  50:   1)
(PID.TID 0000.0001) // RANGE J (Lo:Hi:Step):(  26:   1:  -1)
(PID.TID 0000.0001) // RANGE K (Lo:Hi:Step):(   1:   1:   1)
(PID.TID 0000.0001) // =======================================================
(PID.TID 0000.0001) K =   1
(PID.TID 0000.0001)                I=10      I=20      I=30      I=40      I=50
(PID.TID 0000.0001) |--J--|123456789|123456789|123456789|123456789|123456789|
(PID.TID 0000.0001)     26 ..................................................
(PID.TID 0000.0001)     25 --------------------------------------------------
(PID.TID 0000.0001)     24 --------------------------------------------------
(PID.TID 0000.0001)     23 --------------------------------------------------
(PID.TID 0000.0001)     22 --------------------------------------------------
(PID.TID 0000.0001)     21 --------------------------------------------------
(PID.TID 0000.0001)     20 --------------------------------------------------
(PID.TID 0000.0001)     19 --------------------------------------------------
(PID.TID 0000.0001)     18 --------------------------------------------------
(PID.TID 0000.0001)     17 --------------------------------------------------
(PID.TID 0000.0001)     16 aaaaaaaaaaaaaaaaaaaaaaaaaaaaaaaaaaaaaaaaaaaaaaaaaa
(PID.TID 0000.0001)     15 cccccccccccccccccccccccccccccccccccccccccccccccccc
(PID.TID 0000.0001)     14 gggggggggggggggggggggggggggggggggggggggggggggggggg
(PID.TID 0000.0001)     13 nnnnnnmnnnmnmmnmnnnnmnmmnmmnnnmnmnnmnnmmnnmmnmnmmn
(PID.TID 0000.0001)     12 tttttttttttttttttttttttttttttttttttttttttttttttttt
(PID.TID 0000.0001)     11 xxxxxxxxxxxxxxxxxxxxxxxxxxxxxxxxxxxxxxxxxxxxxxxxxx
(PID.TID 0000.0001)     10 zzzzzzzzzzzzzzzzzzzzzzzzzzzzzzzzzzzzzzzzzzzzzzzzzz
(PID.TID 0000.0001)      9 ++++++++++++++++++++++++++++++++++++++++++++++++++
(PID.TID 0000.0001)      8 ++++++++++++++++++++++++++++++++++++++++++++++++++
(PID.TID 0000.0001)      7 ++++++++++++++++++++++++++++++++++++++++++++++++++
(PID.TID 0000.0001)      6 ++++++++++++++++++++++++++++++++++++++++++++++++++
(PID.TID 0000.0001)      5 ++++++++++++++++++++++++++++++++++++++++++++++++++
(PID.TID 0000.0001)      4 ++++++++++++++++++++++++++++++++++++++++++++++++++
(PID.TID 0000.0001)      3 ++++++++++++++++++++++++++++++++++++++++++++++++++
(PID.TID 0000.0001)      2 ++++++++++++++++++++++++++++++++++++++++++++++++++
(PID.TID 0000.0001)      1 ++++++++++++++++++++++++++++++++++++++++++++++++++
(PID.TID 0000.0001) // =======================================================
(PID.TID 0000.0001) // END OF FIELD                                          =
(PID.TID 0000.0001) // =======================================================
(PID.TID 0000.0001) 
(PID.TID 0000.0001)  MDSREADFIELD: opening global file: spiceInitial.bin
(PID.TID 0000.0001) // =======================================================
(PID.TID 0000.0001) // Field Initial Salinity at iteration          1
(PID.TID 0000.0001) // CMIN =          1.697961298285419E+01
(PID.TID 0000.0001) // CMAX =          1.702038710930990E+01
(PID.TID 0000.0001) // CINT =          1.510152831693316E-03
(PID.TID 0000.0001) // SYMBOLS (CMIN->CMAX): -abcdefghijklmnopqrstuvwxyz+
(PID.TID 0000.0001) //                  0.0: .
(PID.TID 0000.0001) // RANGE I (Lo:Hi:Step):(   1:  50:   1)
(PID.TID 0000.0001) // RANGE J (Lo:Hi:Step):(  26:   1:  -1)
(PID.TID 0000.0001) // RANGE K (Lo:Hi:Step):(   1:   1:   1)
(PID.TID 0000.0001) // =======================================================
(PID.TID 0000.0001) K =   1
(PID.TID 0000.0001)                I=10      I=20      I=30      I=40      I=50
(PID.TID 0000.0001) |--J--|123456789|123456789|123456789|123456789|123456789|
(PID.TID 0000.0001)     26 ..................................................
(PID.TID 0000.0001)     25 +++++++++zxtmgca------------------acgmtxz+++++++++
(PID.TID 0000.0001)     24 +++++++++zxtmgca------------------acgmtxz+++++++++
(PID.TID 0000.0001)     23 +++++++++zxtmgca------------------acgmtxz+++++++++
(PID.TID 0000.0001)     22 +++++++++zxtmgca------------------acgmtxz+++++++++
(PID.TID 0000.0001)     21 +++++++++zxtmgca------------------acgmtxz+++++++++
(PID.TID 0000.0001)     20 +++++++++zxtmgca------------------acgmtxz+++++++++
(PID.TID 0000.0001)     19 +++++++++zxtmgca------------------acgmtxz+++++++++
(PID.TID 0000.0001)     18 +++++++++zxtmgca------------------acgmtxz+++++++++
(PID.TID 0000.0001)     17 +++++++++zxtmgca------------------acgmtxz+++++++++
(PID.TID 0000.0001)     16 +++++++++zxtmgca------------------acgmtxz+++++++++
(PID.TID 0000.0001)     15 +++++++++zxtmgca------------------acgmtxz+++++++++
(PID.TID 0000.0001)     14 +++++++++zxtmgca------------------acgmtxz+++++++++
(PID.TID 0000.0001)     13 +++++++++zxtmgca------------------acgmtxz+++++++++
(PID.TID 0000.0001)     12 +++++++++zxtmgca------------------acgmtxz+++++++++
(PID.TID 0000.0001)     11 +++++++++zxtmgca------------------acgmtxz+++++++++
(PID.TID 0000.0001)     10 +++++++++zxtmgca------------------acgmtxz+++++++++
(PID.TID 0000.0001)      9 +++++++++zxtmgca------------------acgmtxz+++++++++
(PID.TID 0000.0001)      8 +++++++++zxtmgca------------------acgmtxz+++++++++
(PID.TID 0000.0001)      7 +++++++++zxtmgca------------------acgmtxz+++++++++
(PID.TID 0000.0001)      6 +++++++++zxtmgca------------------acgmtxz+++++++++
(PID.TID 0000.0001)      5 +++++++++zxtmgca------------------acgmtxz+++++++++
(PID.TID 0000.0001)      4 +++++++++zxtmgca------------------acgmtxz+++++++++
(PID.TID 0000.0001)      3 +++++++++zxtmgca------------------acgmtxz+++++++++
(PID.TID 0000.0001)      2 +++++++++zxtmgca------------------acgmtxz+++++++++
(PID.TID 0000.0001)      1 +++++++++zxtmgca------------------acgmtxz+++++++++
(PID.TID 0000.0001) // =======================================================
(PID.TID 0000.0001) // END OF FIELD                                          =
(PID.TID 0000.0001) // =======================================================
(PID.TID 0000.0001) 
(PID.TID 0000.0001) Start initial hydrostatic pressure computation
(PID.TID 0000.0001) Pressure is predetermined for buoyancyRelation OCEANIC
(PID.TID 0000.0001) 
(PID.TID 0000.0001) // =======================================================
(PID.TID 0000.0001) // Model current state
(PID.TID 0000.0001) // =======================================================
(PID.TID 0000.0001) 
(PID.TID 0000.0001) // =======================================================
(PID.TID 0000.0001) // Begin MONITOR dynamic field statistics
(PID.TID 0000.0001) // =======================================================
(PID.TID 0000.0001) %MON time_tsnumber                =                     0
(PID.TID 0000.0001) %MON time_secondsf                =   0.0000000000000E+00
(PID.TID 0000.0001) %MON dynstat_eta_max              =   0.0000000000000E+00
(PID.TID 0000.0001) %MON dynstat_eta_min              =   0.0000000000000E+00
(PID.TID 0000.0001) %MON dynstat_eta_mean             =   0.0000000000000E+00
(PID.TID 0000.0001) %MON dynstat_eta_sd               =   0.0000000000000E+00
(PID.TID 0000.0001) %MON dynstat_eta_del2             =   0.0000000000000E+00
(PID.TID 0000.0001) %MON dynstat_uvel_max             =   0.0000000000000E+00
(PID.TID 0000.0001) %MON dynstat_uvel_min             =   0.0000000000000E+00
(PID.TID 0000.0001) %MON dynstat_uvel_mean            =   0.0000000000000E+00
(PID.TID 0000.0001) %MON dynstat_uvel_sd              =   0.0000000000000E+00
(PID.TID 0000.0001) %MON dynstat_uvel_del2            =   0.0000000000000E+00
(PID.TID 0000.0001) %MON dynstat_vvel_max             =   0.0000000000000E+00
(PID.TID 0000.0001) %MON dynstat_vvel_min             =   0.0000000000000E+00
(PID.TID 0000.0001) %MON dynstat_vvel_mean            =   0.0000000000000E+00
(PID.TID 0000.0001) %MON dynstat_vvel_sd              =   0.0000000000000E+00
(PID.TID 0000.0001) %MON dynstat_vvel_del2            =   0.0000000000000E+00
(PID.TID 0000.0001) %MON dynstat_wvel_max             =   0.0000000000000E+00
(PID.TID 0000.0001) %MON dynstat_wvel_min             =   0.0000000000000E+00
(PID.TID 0000.0001) %MON dynstat_wvel_mean            =   0.0000000000000E+00
(PID.TID 0000.0001) %MON dynstat_wvel_sd              =   0.0000000000000E+00
(PID.TID 0000.0001) %MON dynstat_wvel_del2            =   0.0000000000000E+00
(PID.TID 0000.0001) %MON dynstat_theta_max            =   1.7020391872710E+01
(PID.TID 0000.0001) %MON dynstat_theta_min            =   1.6979608188987E+01
(PID.TID 0000.0001) %MON dynstat_theta_mean           =   1.6999999951796E+01
(PID.TID 0000.0001) %MON dynstat_theta_sd             =   1.8685323590466E-02
(PID.TID 0000.0001) %MON dynstat_theta_del2           =   1.8923397613303E-04
(PID.TID 0000.0001) %MON dynstat_salt_max             =   1.7020387109310E+01
(PID.TID 0000.0001) %MON dynstat_salt_min             =   1.6979612982854E+01
(PID.TID 0000.0001) %MON dynstat_salt_mean            =   1.7000000005831E+01
(PID.TID 0000.0001) %MON dynstat_salt_sd              =   1.8685329922586E-02
(PID.TID 0000.0001) %MON dynstat_salt_del2            =   1.8842697543015E-04
(PID.TID 0000.0001) %MON advcfl_uvel_max              =   0.0000000000000E+00
(PID.TID 0000.0001) %MON advcfl_vvel_max              =   0.0000000000000E+00
(PID.TID 0000.0001) %MON advcfl_wvel_max              =   0.0000000000000E+00
(PID.TID 0000.0001) %MON advcfl_W_hf_max              =   0.0000000000000E+00
(PID.TID 0000.0001) %MON pe_b_mean                    =   0.0000000000000E+00
(PID.TID 0000.0001) %MON ke_max                       =   0.0000000000000E+00
(PID.TID 0000.0001) %MON ke_mean                      =   0.0000000000000E+00
(PID.TID 0000.0001) %MON ke_vol                       =   2.5000000000000E+11
(PID.TID 0000.0001) %MON vort_r_min                   =   0.0000000000000E+00
(PID.TID 0000.0001) %MON vort_r_max                   =   0.0000000000000E+00
(PID.TID 0000.0001) %MON vort_a_mean                  =   7.2900000000000E-05
(PID.TID 0000.0001) %MON vort_a_sd                    =  -1.5279854090138E-21
(PID.TID 0000.0001) %MON vort_p_mean                  =   7.7363265306122E-05
(PID.TID 0000.0001) %MON vort_p_sd                    =   3.0922409111393E-05
(PID.TID 0000.0001) %MON surfExpan_theta_mean         =   0.0000000000000E+00
(PID.TID 0000.0001) %MON surfExpan_salt_mean          =   0.0000000000000E+00
(PID.TID 0000.0001) // =======================================================
(PID.TID 0000.0001) // End MONITOR dynamic field statistics
(PID.TID 0000.0001) // =======================================================
 cg2d: Sum(rhs),rhsMax =  -4.61909156757034E-14  6.56468600582941E-04
(PID.TID 0000.0001)                    cg2d_init_res =    1.48626964519167E+01
(PID.TID 0000.0001)                       cg2d_iters =    87
(PID.TID 0000.0001)                         cg2d_res =    7.06118400970811E-12
(PID.TID 0000.0001) // =======================================================
(PID.TID 0000.0001) // Begin MONITOR dynamic field statistics
(PID.TID 0000.0001) // =======================================================
(PID.TID 0000.0001) %MON time_tsnumber                =                     1
(PID.TID 0000.0001) %MON time_secondsf                =   1.2000000000000E+03
(PID.TID 0000.0001) %MON dynstat_eta_max              =   3.9842268071141E-04
(PID.TID 0000.0001) %MON dynstat_eta_min              =  -3.9842837043612E-04
(PID.TID 0000.0001) %MON dynstat_eta_mean             =  -1.7147758563096E-18
(PID.TID 0000.0001) %MON dynstat_eta_sd               =   3.6612608254614E-04
(PID.TID 0000.0001) %MON dynstat_eta_del2             =   3.7667288738548E-06
(PID.TID 0000.0001) %MON dynstat_uvel_max             =   2.2315490356453E-06
(PID.TID 0000.0001) %MON dynstat_uvel_min             =  -2.2323475667809E-06
(PID.TID 0000.0001) %MON dynstat_uvel_mean            =   8.5081770065826E-21
(PID.TID 0000.0001) %MON dynstat_uvel_sd              =   5.5728774979329E-07
(PID.TID 0000.0001) %MON dynstat_uvel_del2            =   5.0688460612198E-07
(PID.TID 0000.0001) %MON dynstat_vvel_max             =   2.1242623157435E-03
(PID.TID 0000.0001) %MON dynstat_vvel_min             =  -2.1611393741625E-03
(PID.TID 0000.0001) %MON dynstat_vvel_mean            =  -1.0578841014776E-05
(PID.TID 0000.0001) %MON dynstat_vvel_sd              =   4.5720682499468E-04
(PID.TID 0000.0001) %MON dynstat_vvel_del2            =   1.6397313636427E-05
(PID.TID 0000.0001) %MON dynstat_wvel_max             =   3.9331661790402E-05
(PID.TID 0000.0001) %MON dynstat_wvel_min             =  -3.9418748886642E-05
(PID.TID 0000.0001) %MON dynstat_wvel_mean            =   3.2704586437885E-23
(PID.TID 0000.0001) %MON dynstat_wvel_sd              =   1.2210114568747E-05
(PID.TID 0000.0001) %MON dynstat_wvel_del2            =   1.0244826288415E-06
(PID.TID 0000.0001) %MON dynstat_theta_max            =   1.7020391872709E+01
(PID.TID 0000.0001) %MON dynstat_theta_min            =   1.6979608188987E+01
(PID.TID 0000.0001) %MON dynstat_theta_mean           =   1.6999999917591E+01
(PID.TID 0000.0001) %MON dynstat_theta_sd             =   1.8685309706644E-02
(PID.TID 0000.0001) %MON dynstat_theta_del2           =   1.8924933377129E-04
(PID.TID 0000.0001) %MON dynstat_salt_max             =   1.7020387109310E+01
(PID.TID 0000.0001) %MON dynstat_salt_min             =   1.6979612982854E+01
(PID.TID 0000.0001) %MON dynstat_salt_mean            =   1.7000000005831E+01
(PID.TID 0000.0001) %MON dynstat_salt_sd              =   1.8685329918564E-02
(PID.TID 0000.0001) %MON dynstat_salt_del2            =   1.8842707866046E-04
(PID.TID 0000.0001) %MON advcfl_uvel_max              =   2.6788170801371E-06
(PID.TID 0000.0001) %MON advcfl_vvel_max              =   2.5933672489949E-03
(PID.TID 0000.0001) %MON advcfl_wvel_max              =   9.4604997327942E-03
(PID.TID 0000.0001) %MON advcfl_W_hf_max              =   9.4604997327942E-03
(PID.TID 0000.0001) %MON pe_b_mean                    =   3.2875347615623E-09
(PID.TID 0000.0001) %MON ke_max                       =   2.3327445399791E-06
(PID.TID 0000.0001) %MON ke_mean                      =   1.0039215178031E-07
(PID.TID 0000.0001) %MON ke_vol                       =   2.5000000000000E+11
(PID.TID 0000.0001) %MON vort_r_min                   =  -2.0535650422839E-09
(PID.TID 0000.0001) %MON vort_r_max                   =   2.0537052949132E-09
(PID.TID 0000.0001) %MON vort_a_mean                  =   7.2900000000000E-05
(PID.TID 0000.0001) %MON vort_a_sd                    =   1.4683340210353E-10
(PID.TID 0000.0001) %MON vort_p_mean                  =   7.7363265306122E-05
(PID.TID 0000.0001) %MON vort_p_sd                    =   3.0922409112957E-05
(PID.TID 0000.0001) %MON surfExpan_theta_mean         =   5.7008897736239E-09
(PID.TID 0000.0001) %MON surfExpan_salt_mean          =  -1.1711270286082E-14
(PID.TID 0000.0001) // =======================================================
(PID.TID 0000.0001) // End MONITOR dynamic field statistics
(PID.TID 0000.0001) // =======================================================
 cg2d: Sum(rhs),rhsMax =  -3.41992059671448E-14  6.57690385522262E-04
(PID.TID 0000.0001)                    cg2d_init_res =    1.36667990166157E-01
(PID.TID 0000.0001)                       cg2d_iters =    74
(PID.TID 0000.0001)                         cg2d_res =    8.50245418870916E-12
(PID.TID 0000.0001) // =======================================================
(PID.TID 0000.0001) // Begin MONITOR dynamic field statistics
(PID.TID 0000.0001) // =======================================================
(PID.TID 0000.0001) %MON time_tsnumber                =                     2
(PID.TID 0000.0001) %MON time_secondsf                =   2.4000000000000E+03
(PID.TID 0000.0001) %MON dynstat_eta_max              =   4.1813944480984E-04
(PID.TID 0000.0001) %MON dynstat_eta_min              =  -4.1811697376333E-04
(PID.TID 0000.0001) %MON dynstat_eta_mean             =  -5.3317476633730E-18
(PID.TID 0000.0001) %MON dynstat_eta_sd               =   3.8095997605196E-04
(PID.TID 0000.0001) %MON dynstat_eta_del2             =   3.8064085816366E-06
(PID.TID 0000.0001) %MON dynstat_uvel_max             =   2.8131838771470E-04
(PID.TID 0000.0001) %MON dynstat_uvel_min             =  -2.8619454316915E-04
(PID.TID 0000.0001) %MON dynstat_uvel_mean            =  -1.3502527510249E-06
(PID.TID 0000.0001) %MON dynstat_uvel_sd              =   5.7726545239831E-05
(PID.TID 0000.0001) %MON dynstat_uvel_del2            =   2.4439852167825E-06
(PID.TID 0000.0001) %MON dynstat_vvel_max             =   4.2226117544330E-03
(PID.TID 0000.0001) %MON dynstat_vvel_min             =  -4.2236616508331E-03
(PID.TID 0000.0001) %MON dynstat_vvel_mean            =  -4.7552938038338E-07
(PID.TID 0000.0001) %MON dynstat_vvel_sd              =   9.0893542839307E-04
(PID.TID 0000.0001) %MON dynstat_vvel_del2            =   3.1705788456165E-05
(PID.TID 0000.0001) %MON dynstat_wvel_max             =   7.6011159673398E-05
(PID.TID 0000.0001) %MON dynstat_wvel_min             =  -7.6159969208426E-05
(PID.TID 0000.0001) %MON dynstat_wvel_mean            =  -5.6699882033062E-22
(PID.TID 0000.0001) %MON dynstat_wvel_sd              =   2.3886884687334E-05
(PID.TID 0000.0001) %MON dynstat_wvel_del2            =   1.9645041525998E-06
(PID.TID 0000.0001) %MON dynstat_theta_max            =   1.7020391872709E+01
(PID.TID 0000.0001) %MON dynstat_theta_min            =   1.6979608188987E+01
(PID.TID 0000.0001) %MON dynstat_theta_mean           =   1.6999999916205E+01
(PID.TID 0000.0001) %MON dynstat_theta_sd             =   1.8685282184757E-02
(PID.TID 0000.0001) %MON dynstat_theta_del2           =   1.8936619340865E-04
(PID.TID 0000.0001) %MON dynstat_salt_max             =   1.7020387109310E+01
(PID.TID 0000.0001) %MON dynstat_salt_min             =   1.6979612982854E+01
(PID.TID 0000.0001) %MON dynstat_salt_mean            =   1.7000000005831E+01
(PID.TID 0000.0001) %MON dynstat_salt_sd              =   1.8685329646075E-02
(PID.TID 0000.0001) %MON dynstat_salt_del2            =   1.8842849780169E-04
(PID.TID 0000.0001) %MON advcfl_uvel_max              =   3.4343345180298E-04
(PID.TID 0000.0001) %MON advcfl_vvel_max              =   5.0683939809998E-03
(PID.TID 0000.0001) %MON advcfl_wvel_max              =   1.8278392610022E-02
(PID.TID 0000.0001) %MON advcfl_W_hf_max              =   1.8278392610022E-02
(PID.TID 0000.0001) %MON pe_b_mean                    =   3.5593255947448E-09
(PID.TID 0000.0001) %MON ke_max                       =   8.9498520717399E-06
(PID.TID 0000.0001) %MON ke_mean                      =   3.9822573137973E-07
(PID.TID 0000.0001) %MON ke_vol                       =   2.5000000000000E+11
(PID.TID 0000.0001) %MON vort_r_min                   =  -9.6982968038560E-08
(PID.TID 0000.0001) %MON vort_r_max                   =   9.6945226081582E-08
(PID.TID 0000.0001) %MON vort_a_mean                  =   7.2900000000001E-05
(PID.TID 0000.0001) %MON vort_a_sd                    =   2.2814864307563E-08
(PID.TID 0000.0001) %MON vort_p_mean                  =   7.7363265306123E-05
(PID.TID 0000.0001) %MON vort_p_sd                    =   3.0922418046090E-05
(PID.TID 0000.0001) %MON surfExpan_theta_mean         =   2.3099077158204E-10
(PID.TID 0000.0001) %MON surfExpan_salt_mean          =  -6.7160920281309E-16
(PID.TID 0000.0001) // =======================================================
(PID.TID 0000.0001) // End MONITOR dynamic field statistics
(PID.TID 0000.0001) // =======================================================
 cg2d: Sum(rhs),rhsMax =   4.29189561494681E-14  6.57153986024303E-04
(PID.TID 0000.0001)                    cg2d_init_res =    6.84196463771151E-02
(PID.TID 0000.0001)                       cg2d_iters =    72
(PID.TID 0000.0001)                         cg2d_res =    8.46188739210347E-12
(PID.TID 0000.0001) // =======================================================
(PID.TID 0000.0001) // Begin MONITOR dynamic field statistics
(PID.TID 0000.0001) // =======================================================
(PID.TID 0000.0001) %MON time_tsnumber                =                     3
(PID.TID 0000.0001) %MON time_secondsf                =   3.6000000000000E+03
(PID.TID 0000.0001) %MON dynstat_eta_max              =   4.0840818524918E-04
(PID.TID 0000.0001) %MON dynstat_eta_min              =  -4.0831315561210E-04
(PID.TID 0000.0001) %MON dynstat_eta_mean             =   9.3069512863142E-18
(PID.TID 0000.0001) %MON dynstat_eta_sd               =   3.7405940533092E-04
(PID.TID 0000.0001) %MON dynstat_eta_del2             =   3.7853278699596E-06
(PID.TID 0000.0001) %MON dynstat_uvel_max             =   7.3309947271665E-04
(PID.TID 0000.0001) %MON dynstat_uvel_min             =  -7.3652300430542E-04
(PID.TID 0000.0001) %MON dynstat_uvel_mean            =  -9.5497339689475E-07
(PID.TID 0000.0001) %MON dynstat_uvel_sd              =   1.5239964725295E-04
(PID.TID 0000.0001) %MON dynstat_uvel_del2            =   5.6771304521524E-06
(PID.TID 0000.0001) %MON dynstat_vvel_max             =   6.2257696103931E-03
(PID.TID 0000.0001) %MON dynstat_vvel_min             =  -6.2245232096127E-03
(PID.TID 0000.0001) %MON dynstat_vvel_mean            =   2.2081101473223E-07
(PID.TID 0000.0001) %MON dynstat_vvel_sd              =   1.3492033655282E-03
(PID.TID 0000.0001) %MON dynstat_vvel_del2            =   4.6135570538693E-05
(PID.TID 0000.0001) %MON dynstat_wvel_max             =   1.1057094741640E-04
(PID.TID 0000.0001) %MON dynstat_wvel_min             =  -1.1077056829520E-04
(PID.TID 0000.0001) %MON dynstat_wvel_mean            =  -5.6068624494444E-22
(PID.TID 0000.0001) %MON dynstat_wvel_sd              =   3.5157544786453E-05
(PID.TID 0000.0001) %MON dynstat_wvel_del2            =   2.8484261696817E-06
(PID.TID 0000.0001) %MON dynstat_theta_max            =   1.7020391872709E+01
(PID.TID 0000.0001) %MON dynstat_theta_min            =   1.6979608188987E+01
(PID.TID 0000.0001) %MON dynstat_theta_mean           =   1.6999999916850E+01
(PID.TID 0000.0001) %MON dynstat_theta_sd             =   1.8685241330447E-02
(PID.TID 0000.0001) %MON dynstat_theta_del2           =   1.8957692023727E-04
(PID.TID 0000.0001) %MON dynstat_salt_max             =   1.7020387109310E+01
(PID.TID 0000.0001) %MON dynstat_salt_min             =   1.6979612982854E+01
(PID.TID 0000.0001) %MON dynstat_salt_mean            =   1.7000000005831E+01
(PID.TID 0000.0001) %MON dynstat_salt_sd              =   1.8685328930387E-02
(PID.TID 0000.0001) %MON dynstat_salt_del2            =   1.8843214406120E-04
(PID.TID 0000.0001) %MON advcfl_uvel_max              =   8.8382760516650E-04
(PID.TID 0000.0001) %MON advcfl_vvel_max              =   7.4709235324718E-03
(PID.TID 0000.0001) %MON advcfl_wvel_max              =   2.6584936390849E-02
(PID.TID 0000.0001) %MON advcfl_W_hf_max              =   2.6584936390849E-02
(PID.TID 0000.0001) %MON pe_b_mean                    =   3.4315487595226E-09
(PID.TID 0000.0001) %MON ke_max                       =   1.9609075531682E-05
(PID.TID 0000.0001) %MON ke_mean                      =   8.8538117197736E-07
(PID.TID 0000.0001) %MON ke_vol                       =   2.5000000000000E+11
(PID.TID 0000.0001) %MON vort_r_min                   =  -2.4773032253948E-07
(PID.TID 0000.0001) %MON vort_r_max                   =   2.4788588724145E-07
(PID.TID 0000.0001) %MON vort_a_mean                  =   7.2899999999999E-05
(PID.TID 0000.0001) %MON vort_a_sd                    =   5.9325558019537E-08
(PID.TID 0000.0001) %MON vort_p_mean                  =   7.7363265306122E-05
(PID.TID 0000.0001) %MON vort_p_sd                    =   3.0922469514732E-05
(PID.TID 0000.0001) %MON surfExpan_theta_mean         =  -1.0737470161377E-10
(PID.TID 0000.0001) %MON surfExpan_salt_mean          =   2.8060513327732E-16
(PID.TID 0000.0001) // =======================================================
(PID.TID 0000.0001) // End MONITOR dynamic field statistics
(PID.TID 0000.0001) // =======================================================
 cg2d: Sum(rhs),rhsMax =  -1.00521641791668E-13  6.57210332123198E-04
(PID.TID 0000.0001)                    cg2d_init_res =    3.16435676768076E-02
(PID.TID 0000.0001)                       cg2d_iters =    73
(PID.TID 0000.0001)                         cg2d_res =    5.23276833699570E-12
(PID.TID 0000.0001) // =======================================================
(PID.TID 0000.0001) // Begin MONITOR dynamic field statistics
(PID.TID 0000.0001) // =======================================================
(PID.TID 0000.0001) %MON time_tsnumber                =                     4
(PID.TID 0000.0001) %MON time_secondsf                =   4.8000000000000E+03
(PID.TID 0000.0001) %MON dynstat_eta_max              =   4.0765791785029E-04
(PID.TID 0000.0001) %MON dynstat_eta_min              =  -4.0746320193574E-04
(PID.TID 0000.0001) %MON dynstat_eta_mean             =   1.8093739190261E-18
(PID.TID 0000.0001) %MON dynstat_eta_sd               =   3.7351516257771E-04
(PID.TID 0000.0001) %MON dynstat_eta_del2             =   3.7853609152225E-06
(PID.TID 0000.0001) %MON dynstat_uvel_max             =   1.3433631798085E-03
(PID.TID 0000.0001) %MON dynstat_uvel_min             =  -1.3466721058661E-03
(PID.TID 0000.0001) %MON dynstat_uvel_mean            =  -9.0623595975137E-07
(PID.TID 0000.0001) %MON dynstat_uvel_sd              =   2.8261199967411E-04
(PID.TID 0000.0001) %MON dynstat_uvel_del2            =   9.9484374353406E-06
(PID.TID 0000.0001) %MON dynstat_vvel_max             =   8.1419580584533E-03
(PID.TID 0000.0001) %MON dynstat_vvel_min             =  -8.1410739741613E-03
(PID.TID 0000.0001) %MON dynstat_vvel_mean            =   1.7638071721264E-08
(PID.TID 0000.0001) %MON dynstat_vvel_sd              =   1.7757093269151E-03
(PID.TID 0000.0001) %MON dynstat_vvel_del2            =   6.0145562096772E-05
(PID.TID 0000.0001) %MON dynstat_wvel_max             =   1.4433151801854E-04
(PID.TID 0000.0001) %MON dynstat_wvel_min             =  -1.4415920831338E-04
(PID.TID 0000.0001) %MON dynstat_wvel_mean            =  -1.6413825714145E-21
(PID.TID 0000.0001) %MON dynstat_wvel_sd              =   4.5922153200417E-05
(PID.TID 0000.0001) %MON dynstat_wvel_del2            =   3.6737684012133E-06
(PID.TID 0000.0001) %MON dynstat_theta_max            =   1.7020391872709E+01
(PID.TID 0000.0001) %MON dynstat_theta_min            =   1.6979608188987E+01
(PID.TID 0000.0001) %MON dynstat_theta_mean           =   1.6999999916900E+01
(PID.TID 0000.0001) %MON dynstat_theta_sd             =   1.8685187467583E-02
(PID.TID 0000.0001) %MON dynstat_theta_del2           =   1.8985522889062E-04
(PID.TID 0000.0001) %MON dynstat_salt_max             =   1.7020387109310E+01
(PID.TID 0000.0001) %MON dynstat_salt_min             =   1.6979612982854E+01
(PID.TID 0000.0001) %MON dynstat_salt_mean            =   1.7000000005831E+01
(PID.TID 0000.0001) %MON dynstat_salt_sd              =   1.8685327599097E-02
(PID.TID 0000.0001) %MON dynstat_salt_del2            =   1.8843880290500E-04
(PID.TID 0000.0001) %MON advcfl_uvel_max              =   1.6160065270393E-03
(PID.TID 0000.0001) %MON advcfl_vvel_max              =   9.7703496701439E-03
(PID.TID 0000.0001) %MON advcfl_wvel_max              =   3.4639564324450E-02
(PID.TID 0000.0001) %MON advcfl_W_hf_max              =   3.4639564324450E-02
(PID.TID 0000.0001) %MON pe_b_mean                    =   3.4215704679655E-09
(PID.TID 0000.0001) %MON ke_max                       =   3.3954008958466E-05
(PID.TID 0000.0001) %MON ke_mean                      =   1.5534441165337E-06
(PID.TID 0000.0001) %MON ke_vol                       =   2.5000000000000E+11
(PID.TID 0000.0001) %MON vort_r_min                   =  -4.4754343892567E-07
(PID.TID 0000.0001) %MON vort_r_max                   =   4.4870183583386E-07
(PID.TID 0000.0001) %MON vort_a_mean                  =   7.2900000000000E-05
(PID.TID 0000.0001) %MON vort_a_sd                    =   1.0873524458903E-07
(PID.TID 0000.0001) %MON vort_p_mean                  =   7.7363265306122E-05
(PID.TID 0000.0001) %MON vort_p_sd                    =   3.0922612018340E-05
(PID.TID 0000.0001) %MON surfExpan_theta_mean         =  -8.4805297584635E-12
(PID.TID 0000.0001) %MON surfExpan_salt_mean          =  -6.0345975437184E-18
(PID.TID 0000.0001) // =======================================================
(PID.TID 0000.0001) // End MONITOR dynamic field statistics
(PID.TID 0000.0001) // =======================================================
 cg2d: Sum(rhs),rhsMax =  -4.51700851201997E-14  6.57223681018532E-04
(PID.TID 0000.0001)                    cg2d_init_res =    3.50684243139518E-02
(PID.TID 0000.0001)                       cg2d_iters =    73
(PID.TID 0000.0001)                         cg2d_res =    7.43941230004699E-12
(PID.TID 0000.0001) // =======================================================
(PID.TID 0000.0001) // Begin MONITOR dynamic field statistics
(PID.TID 0000.0001) // =======================================================
(PID.TID 0000.0001) %MON time_tsnumber                =                     5
(PID.TID 0000.0001) %MON time_secondsf                =   6.0000000000000E+03
(PID.TID 0000.0001) %MON dynstat_eta_max              =   4.0788944288710E-04
(PID.TID 0000.0001) %MON dynstat_eta_min              =  -4.0757777808657E-04
(PID.TID 0000.0001) %MON dynstat_eta_mean             =   1.8311362481871E-19
(PID.TID 0000.0001) %MON dynstat_eta_sd               =   3.7363115466375E-04
(PID.TID 0000.0001) %MON dynstat_eta_del2             =   3.7872741340089E-06
(PID.TID 0000.0001) %MON dynstat_uvel_max             =   2.1016037583757E-03
(PID.TID 0000.0001) %MON dynstat_uvel_min             =  -2.1050692247908E-03
(PID.TID 0000.0001) %MON dynstat_uvel_mean            =  -9.1352590038930E-07
(PID.TID 0000.0001) %MON dynstat_uvel_sd              =   4.4685040336835E-04
(PID.TID 0000.0001) %MON dynstat_uvel_del2            =   1.5160190474310E-05
(PID.TID 0000.0001) %MON dynstat_vvel_max             =   9.9626154501388E-03
(PID.TID 0000.0001) %MON dynstat_vvel_min             =  -9.9615525079454E-03
(PID.TID 0000.0001) %MON dynstat_vvel_mean            =  -3.8021106420240E-09
(PID.TID 0000.0001) %MON dynstat_vvel_sd              =   2.1854883536534E-03
(PID.TID 0000.0001) %MON dynstat_vvel_del2            =   7.3824208642481E-05
(PID.TID 0000.0001) %MON dynstat_wvel_max             =   1.7716553121592E-04
(PID.TID 0000.0001) %MON dynstat_wvel_min             =  -1.7702321089363E-04
(PID.TID 0000.0001) %MON dynstat_wvel_mean            =  -1.2201758503484E-21
(PID.TID 0000.0001) %MON dynstat_wvel_sd              =   5.6118499192665E-05
(PID.TID 0000.0001) %MON dynstat_wvel_del2            =   4.4401371370962E-06
(PID.TID 0000.0001) %MON dynstat_theta_max            =   1.7020391872709E+01
(PID.TID 0000.0001) %MON dynstat_theta_min            =   1.6979608188987E+01
(PID.TID 0000.0001) %MON dynstat_theta_mean           =   1.6999999916890E+01
(PID.TID 0000.0001) %MON dynstat_theta_sd             =   1.8685120965730E-02
(PID.TID 0000.0001) %MON dynstat_theta_del2           =   1.9019025102751E-04
(PID.TID 0000.0001) %MON dynstat_salt_max             =   1.7020387109310E+01
(PID.TID 0000.0001) %MON dynstat_salt_min             =   1.6979612982854E+01
(PID.TID 0000.0001) %MON dynstat_salt_mean            =   1.7000000005831E+01
(PID.TID 0000.0001) %MON dynstat_salt_sd              =   1.8685325486077E-02
(PID.TID 0000.0001) %MON dynstat_salt_del2            =   1.8844922523456E-04
(PID.TID 0000.0001) %MON advcfl_uvel_max              =   2.5260830697489E-03
(PID.TID 0000.0001) %MON advcfl_vvel_max              =   1.1955138540167E-02
(PID.TID 0000.0001) %MON advcfl_wvel_max              =   4.2519727491820E-02
(PID.TID 0000.0001) %MON advcfl_W_hf_max              =   4.2519727491820E-02
(PID.TID 0000.0001) %MON pe_b_mean                    =   3.4236958795098E-09
(PID.TID 0000.0001) %MON ke_max                       =   5.1641135828516E-05
(PID.TID 0000.0001) %MON ke_mean                      =   2.3924905438652E-06
(PID.TID 0000.0001) %MON ke_vol                       =   2.5000000000000E+11
(PID.TID 0000.0001) %MON vort_r_min                   =  -6.9079915721995E-07
(PID.TID 0000.0001) %MON vort_r_max                   =   6.9389622645990E-07
(PID.TID 0000.0001) %MON vort_a_mean                  =   7.2900000000000E-05
(PID.TID 0000.0001) %MON vort_a_sd                    =   1.7012191833608E-07
(PID.TID 0000.0001) %MON vort_p_mean                  =   7.7363265306122E-05
(PID.TID 0000.0001) %MON vort_p_sd                    =   3.0922905769832E-05
(PID.TID 0000.0001) %MON surfExpan_theta_mean         =   1.7951329770643E-12
(PID.TID 0000.0001) %MON surfExpan_salt_mean          =  -4.2828291739130E-17
(PID.TID 0000.0001) // =======================================================
(PID.TID 0000.0001) // End MONITOR dynamic field statistics
(PID.TID 0000.0001) // =======================================================
 cg2d: Sum(rhs),rhsMax =  -9.19856096674720E-14  6.57085763705135E-04
(PID.TID 0000.0001)                    cg2d_init_res =    3.55357427998164E-02
(PID.TID 0000.0001)                       cg2d_iters =    73
(PID.TID 0000.0001)                         cg2d_res =    9.79604219968207E-12
(PID.TID 0000.0001) // =======================================================
(PID.TID 0000.0001) // Begin MONITOR dynamic field statistics
(PID.TID 0000.0001) // =======================================================
(PID.TID 0000.0001) %MON time_tsnumber                =                     6
(PID.TID 0000.0001) %MON time_secondsf                =   7.2000000000000E+03
(PID.TID 0000.0001) %MON dynstat_eta_max              =   4.0797293559587E-04
(PID.TID 0000.0001) %MON dynstat_eta_min              =  -4.0753827465643E-04
(PID.TID 0000.0001) %MON dynstat_eta_mean             =   9.2252312755559E-18
(PID.TID 0000.0001) %MON dynstat_eta_sd               =   3.7364374306563E-04
(PID.TID 0000.0001) %MON dynstat_eta_del2             =   3.7885317433580E-06
(PID.TID 0000.0001) %MON dynstat_uvel_max             =   2.9960158372448E-03
(PID.TID 0000.0001) %MON dynstat_uvel_min             =  -2.9998043898249E-03
(PID.TID 0000.0001) %MON dynstat_uvel_mean            =  -9.1481819421734E-07
(PID.TID 0000.0001) %MON dynstat_uvel_sd              =   6.4333823807342E-04
(PID.TID 0000.0001) %MON dynstat_uvel_del2            =   2.1203713899374E-05
(PID.TID 0000.0001) %MON dynstat_vvel_max             =   1.1678308020423E-02
(PID.TID 0000.0001) %MON dynstat_vvel_min             =  -1.1677032314706E-02
(PID.TID 0000.0001) %MON dynstat_vvel_mean            =  -4.6438348823737E-10
(PID.TID 0000.0001) %MON dynstat_vvel_sd              =   2.5757512082731E-03
(PID.TID 0000.0001) %MON dynstat_vvel_del2            =   8.6843188836393E-05
(PID.TID 0000.0001) %MON dynstat_wvel_max             =   2.0835313314246E-04
(PID.TID 0000.0001) %MON dynstat_wvel_min             =  -2.0825435041999E-04
(PID.TID 0000.0001) %MON dynstat_wvel_mean            =   2.2505094489487E-21
(PID.TID 0000.0001) %MON dynstat_wvel_sd              =   6.5696311568765E-05
(PID.TID 0000.0001) %MON dynstat_wvel_del2            =   5.1474082054175E-06
(PID.TID 0000.0001) %MON dynstat_theta_max            =   1.7020391872709E+01
(PID.TID 0000.0001) %MON dynstat_theta_min            =   1.6979608188987E+01
(PID.TID 0000.0001) %MON dynstat_theta_mean           =   1.6999999916889E+01
(PID.TID 0000.0001) %MON dynstat_theta_sd             =   1.8685042243495E-02
(PID.TID 0000.0001) %MON dynstat_theta_del2           =   1.9057279066306E-04
(PID.TID 0000.0001) %MON dynstat_salt_max             =   1.7020387109310E+01
(PID.TID 0000.0001) %MON dynstat_salt_min             =   1.6979612982854E+01
(PID.TID 0000.0001) %MON dynstat_salt_mean            =   1.7000000005831E+01
(PID.TID 0000.0001) %MON dynstat_salt_sd              =   1.8685322431677E-02
(PID.TID 0000.0001) %MON dynstat_salt_del2            =   1.8846410142752E-04
(PID.TID 0000.0001) %MON advcfl_uvel_max              =   3.5997652677899E-03
(PID.TID 0000.0001) %MON advcfl_vvel_max              =   1.4013969624507E-02
(PID.TID 0000.0001) %MON advcfl_wvel_max              =   5.0004751954189E-02
(PID.TID 0000.0001) %MON advcfl_W_hf_max              =   5.0004751954189E-02
(PID.TID 0000.0001) %MON pe_b_mean                    =   3.4239265861046E-09
(PID.TID 0000.0001) %MON ke_max                       =   7.2327451107249E-05
(PID.TID 0000.0001) %MON ke_mean                      =   3.3914997204518E-06
(PID.TID 0000.0001) %MON ke_vol                       =   2.5000000000000E+11
(PID.TID 0000.0001) %MON vort_r_min                   =  -9.7197145378075E-07
(PID.TID 0000.0001) %MON vort_r_max                   =   9.7815084455825E-07
(PID.TID 0000.0001) %MON vort_a_mean                  =   7.2900000000000E-05
(PID.TID 0000.0001) %MON vort_a_sd                    =   2.4250308188902E-07
(PID.TID 0000.0001) %MON vort_p_mean                  =   7.7363265306123E-05
(PID.TID 0000.0001) %MON vort_p_sd                    =   3.0923418265729E-05
(PID.TID 0000.0001) %MON surfExpan_theta_mean         =   1.8021589336590E-13
(PID.TID 0000.0001) %MON surfExpan_salt_mean          =  -4.0537068821896E-17
(PID.TID 0000.0001) // =======================================================
(PID.TID 0000.0001) // End MONITOR dynamic field statistics
(PID.TID 0000.0001) // =======================================================
 cg2d: Sum(rhs),rhsMax =  -9.37624001877413E-14  6.56699355595960E-04
(PID.TID 0000.0001)                    cg2d_init_res =    3.35493028991738E-02
(PID.TID 0000.0001)                       cg2d_iters =    74
(PID.TID 0000.0001)                         cg2d_res =    7.06019486312700E-12
(PID.TID 0000.0001) // =======================================================
(PID.TID 0000.0001) // Begin MONITOR dynamic field statistics
(PID.TID 0000.0001) // =======================================================
(PID.TID 0000.0001) %MON time_tsnumber                =                     7
(PID.TID 0000.0001) %MON time_secondsf                =   8.4000000000000E+03
(PID.TID 0000.0001) %MON dynstat_eta_max              =   4.0802841673951E-04
(PID.TID 0000.0001) %MON dynstat_eta_min              =  -4.0747746485136E-04
(PID.TID 0000.0001) %MON dynstat_eta_mean             =   1.8499803831062E-17
(PID.TID 0000.0001) %MON dynstat_eta_sd               =   3.7363860932482E-04
(PID.TID 0000.0001) %MON dynstat_eta_del2             =   3.7889244254831E-06
(PID.TID 0000.0001) %MON dynstat_uvel_max             =   4.0142458874071E-03
(PID.TID 0000.0001) %MON dynstat_uvel_min             =  -4.0185884373904E-03
(PID.TID 0000.0001) %MON dynstat_uvel_mean            =  -9.1482115880890E-07
(PID.TID 0000.0001) %MON dynstat_uvel_sd              =   8.7008682505311E-04
(PID.TID 0000.0001) %MON dynstat_uvel_del2            =   2.7967584035940E-05
(PID.TID 0000.0001) %MON dynstat_vvel_max             =   1.3280788399968E-02
(PID.TID 0000.0001) %MON dynstat_vvel_min             =  -1.3279381397134E-02
(PID.TID 0000.0001) %MON dynstat_vvel_mean            =   8.7905489891673E-11
(PID.TID 0000.0001) %MON dynstat_vvel_sd              =   2.9439086436244E-03
(PID.TID 0000.0001) %MON dynstat_vvel_del2            =   9.9125114177938E-05
(PID.TID 0000.0001) %MON dynstat_wvel_max             =   2.3773031860758E-04
(PID.TID 0000.0001) %MON dynstat_wvel_min             =  -2.3768244610322E-04
(PID.TID 0000.0001) %MON dynstat_wvel_mean            =   4.6069499078121E-22
(PID.TID 0000.0001) %MON dynstat_wvel_sd              =   7.4612695721254E-05
(PID.TID 0000.0001) %MON dynstat_wvel_del2            =   5.7959966140669E-06
(PID.TID 0000.0001) %MON dynstat_theta_max            =   1.7020391872709E+01
(PID.TID 0000.0001) %MON dynstat_theta_min            =   1.6979608188987E+01
(PID.TID 0000.0001) %MON dynstat_theta_mean           =   1.6999999916889E+01
(PID.TID 0000.0001) %MON dynstat_theta_sd             =   1.8684951771618E-02
(PID.TID 0000.0001) %MON dynstat_theta_del2           =   1.9099352105425E-04
(PID.TID 0000.0001) %MON dynstat_salt_max             =   1.7020387109310E+01
(PID.TID 0000.0001) %MON dynstat_salt_min             =   1.6979612982854E+01
(PID.TID 0000.0001) %MON dynstat_salt_mean            =   1.7000000005831E+01
(PID.TID 0000.0001) %MON dynstat_salt_sd              =   1.8685318284089E-02
(PID.TID 0000.0001) %MON dynstat_salt_del2            =   1.8848404368800E-04
(PID.TID 0000.0001) %MON advcfl_uvel_max              =   4.8223061248684E-03
(PID.TID 0000.0001) %MON advcfl_vvel_max              =   1.5936946079962E-02
(PID.TID 0000.0001) %MON advcfl_wvel_max              =   5.7055276465818E-02
(PID.TID 0000.0001) %MON advcfl_W_hf_max              =   5.7055276465818E-02
(PID.TID 0000.0001) %MON pe_b_mean                    =   3.4238324995250E-09
(PID.TID 0000.0001) %MON ke_max                       =   9.5669275279435E-05
(PID.TID 0000.0001) %MON ke_mean                      =   4.5384930489774E-06
(PID.TID 0000.0001) %MON ke_vol                       =   2.5000000000000E+11
(PID.TID 0000.0001) %MON vort_r_min                   =  -1.2856094050862E-06
(PID.TID 0000.0001) %MON vort_r_max                   =   1.2960429579292E-06
(PID.TID 0000.0001) %MON vort_a_mean                  =   7.2900000000000E-05
(PID.TID 0000.0001) %MON vort_a_sd                    =   3.2486169972563E-07
(PID.TID 0000.0001) %MON vort_p_mean                  =   7.7363265306123E-05
(PID.TID 0000.0001) %MON vort_p_sd                    =   3.0924220065636E-05
(PID.TID 0000.0001) %MON surfExpan_theta_mean         =  -9.9002728987303E-14
(PID.TID 0000.0001) %MON surfExpan_salt_mean          =  -3.8773080751751E-17
(PID.TID 0000.0001) // =======================================================
(PID.TID 0000.0001) // End MONITOR dynamic field statistics
(PID.TID 0000.0001) // =======================================================
 cg2d: Sum(rhs),rhsMax =  -3.26255949339993E-14  6.55954898499792E-04
(PID.TID 0000.0001)                    cg2d_init_res =    3.11378752192045E-02
(PID.TID 0000.0001)                       cg2d_iters =    74
(PID.TID 0000.0001)                         cg2d_res =    8.43714249189924E-12
(PID.TID 0000.0001) // =======================================================
(PID.TID 0000.0001) // Begin MONITOR dynamic field statistics
(PID.TID 0000.0001) // =======================================================
(PID.TID 0000.0001) %MON time_tsnumber                =                     8
(PID.TID 0000.0001) %MON time_secondsf                =   9.6000000000000E+03
(PID.TID 0000.0001) %MON dynstat_eta_max              =   4.0807582603899E-04
(PID.TID 0000.0001) %MON dynstat_eta_min              =  -4.0742898263050E-04
(PID.TID 0000.0001) %MON dynstat_eta_mean             =   5.0859746530962E-18
(PID.TID 0000.0001) %MON dynstat_eta_sd               =   3.7363364517115E-04
(PID.TID 0000.0001) %MON dynstat_eta_del2             =   3.7881228974489E-06
(PID.TID 0000.0001) %MON dynstat_uvel_max             =   5.1432013502508E-03
(PID.TID 0000.0001) %MON dynstat_uvel_min             =  -5.1487716291875E-03
(PID.TID 0000.0001) %MON dynstat_uvel_mean            =  -9.1500747163573E-07
(PID.TID 0000.0001) %MON dynstat_uvel_sd              =   1.1249151305722E-03
(PID.TID 0000.0001) %MON dynstat_uvel_del2            =   3.5353374485456E-05
(PID.TID 0000.0001) %MON dynstat_vvel_max             =   1.4762856397545E-02
(PID.TID 0000.0001) %MON dynstat_vvel_min             =  -1.4761429480720E-02
(PID.TID 0000.0001) %MON dynstat_vvel_mean            =   5.2760853734270E-11
(PID.TID 0000.0001) %MON dynstat_vvel_sd              =   3.2875832211297E-03
(PID.TID 0000.0001) %MON dynstat_vvel_del2            =   1.1060612595068E-04
(PID.TID 0000.0001) %MON dynstat_wvel_max             =   2.6514908590005E-04
(PID.TID 0000.0001) %MON dynstat_wvel_min             =  -2.6515404978645E-04
(PID.TID 0000.0001) %MON dynstat_wvel_mean            =   1.9562414929423E-21
(PID.TID 0000.0001) %MON dynstat_wvel_sd              =   8.2831989012507E-05
(PID.TID 0000.0001) %MON dynstat_wvel_del2            =   6.3863433048823E-06
(PID.TID 0000.0001) %MON dynstat_theta_max            =   1.7020391872709E+01
(PID.TID 0000.0001) %MON dynstat_theta_min            =   1.6979608188987E+01
(PID.TID 0000.0001) %MON dynstat_theta_mean           =   1.6999999916890E+01
(PID.TID 0000.0001) %MON dynstat_theta_sd             =   1.8684850075694E-02
(PID.TID 0000.0001) %MON dynstat_theta_del2           =   1.9144321349450E-04
(PID.TID 0000.0001) %MON dynstat_salt_max             =   1.7020387109310E+01
(PID.TID 0000.0001) %MON dynstat_salt_min             =   1.6979612982854E+01
(PID.TID 0000.0001) %MON dynstat_salt_mean            =   1.7000000005831E+01
(PID.TID 0000.0001) %MON dynstat_salt_sd              =   1.8685312900689E-02
(PID.TID 0000.0001) %MON dynstat_salt_del2            =   1.8850960048411E-04
(PID.TID 0000.0001) %MON advcfl_uvel_max              =   6.1785259550250E-03
(PID.TID 0000.0001) %MON advcfl_vvel_max              =   1.7715427677053E-02
(PID.TID 0000.0001) %MON advcfl_wvel_max              =   6.3636971948747E-02
(PID.TID 0000.0001) %MON advcfl_W_hf_max              =   6.3636971948747E-02
(PID.TID 0000.0001) %MON pe_b_mean                    =   3.4237415222152E-09
(PID.TID 0000.0001) %MON ke_max                       =   1.2132206293774E-04
(PID.TID 0000.0001) %MON ke_mean                      =   5.8206550933241E-06
(PID.TID 0000.0001) %MON ke_vol                       =   2.5000000000000E+11
(PID.TID 0000.0001) %MON vort_r_min                   =  -1.6265008778580E-06
(PID.TID 0000.0001) %MON vort_r_max                   =   1.6422075267335E-06
(PID.TID 0000.0001) %MON vort_a_mean                  =   7.2900000000000E-05
(PID.TID 0000.0001) %MON vort_a_sd                    =   4.1615723790478E-07
(PID.TID 0000.0001) %MON vort_p_mean                  =   7.7363265306122E-05
(PID.TID 0000.0001) %MON vort_p_sd                    =   3.0925380862059E-05
(PID.TID 0000.0001) %MON surfExpan_theta_mean         =  -9.6149863213896E-14
(PID.TID 0000.0001) %MON surfExpan_salt_mean          =  -3.4533360533764E-17
(PID.TID 0000.0001) // =======================================================
(PID.TID 0000.0001) // End MONITOR dynamic field statistics
(PID.TID 0000.0001) // =======================================================
 cg2d: Sum(rhs),rhsMax =   3.99706851818282E-14  6.54737109299267E-04
(PID.TID 0000.0001)                    cg2d_init_res =    3.21666473854161E-02
(PID.TID 0000.0001)                       cg2d_iters =    74
(PID.TID 0000.0001)                         cg2d_res =    9.78490399106410E-12
(PID.TID 0000.0001) // =======================================================
(PID.TID 0000.0001) // Begin MONITOR dynamic field statistics
(PID.TID 0000.0001) // =======================================================
(PID.TID 0000.0001) %MON time_tsnumber                =                     9
(PID.TID 0000.0001) %MON time_secondsf                =   1.0800000000000E+04
(PID.TID 0000.0001) %MON dynstat_eta_max              =   4.0810652796890E-04
(PID.TID 0000.0001) %MON dynstat_eta_min              =  -4.0739830994596E-04
(PID.TID 0000.0001) %MON dynstat_eta_mean             =   7.7235898165995E-18
(PID.TID 0000.0001) %MON dynstat_eta_sd               =   3.7362748863420E-04
(PID.TID 0000.0001) %MON dynstat_eta_del2             =   3.7857900587510E-06
(PID.TID 0000.0001) %MON dynstat_uvel_max             =   6.3696495980490E-03
(PID.TID 0000.0001) %MON dynstat_uvel_min             =  -6.3772222449187E-03
(PID.TID 0000.0001) %MON dynstat_uvel_mean            =  -9.1539436030831E-07
(PID.TID 0000.0001) %MON dynstat_uvel_sd              =   1.4054696424044E-03
(PID.TID 0000.0001) %MON dynstat_uvel_del2            =   4.3257097406852E-05
(PID.TID 0000.0001) %MON dynstat_vvel_max             =   1.6118318552807E-02
(PID.TID 0000.0001) %MON dynstat_vvel_min             =  -1.6117022617273E-02
(PID.TID 0000.0001) %MON dynstat_vvel_mean            =   5.4780693581965E-11
(PID.TID 0000.0001) %MON dynstat_vvel_sd              =   3.6046212391892E-03
(PID.TID 0000.0001) %MON dynstat_vvel_del2            =   1.2123263614447E-04
(PID.TID 0000.0001) %MON dynstat_wvel_max             =   2.9047994218307E-04
(PID.TID 0000.0001) %MON dynstat_wvel_min             =  -2.9053534369695E-04
(PID.TID 0000.0001) %MON dynstat_wvel_mean            =  -2.1181707905452E-21
(PID.TID 0000.0001) %MON dynstat_wvel_sd              =   9.0325454034229E-05
(PID.TID 0000.0001) %MON dynstat_wvel_del2            =   6.9190626057311E-06
(PID.TID 0000.0001) %MON dynstat_theta_max            =   1.7020391872709E+01
(PID.TID 0000.0001) %MON dynstat_theta_min            =   1.6979608188987E+01
(PID.TID 0000.0001) %MON dynstat_theta_mean           =   1.6999999916890E+01
(PID.TID 0000.0001) %MON dynstat_theta_sd             =   1.8684737738215E-02
(PID.TID 0000.0001) %MON dynstat_theta_del2           =   1.9191282689284E-04
(PID.TID 0000.0001) %MON dynstat_salt_max             =   1.7020387109310E+01
(PID.TID 0000.0001) %MON dynstat_salt_min             =   1.6979612982854E+01
(PID.TID 0000.0001) %MON dynstat_salt_mean            =   1.7000000005831E+01
(PID.TID 0000.0001) %MON dynstat_salt_sd              =   1.8685306149138E-02
(PID.TID 0000.0001) %MON dynstat_salt_del2            =   1.8854122526638E-04
(PID.TID 0000.0001) %MON advcfl_uvel_max              =   7.6526666939025E-03
(PID.TID 0000.0001) %MON advcfl_vvel_max              =   1.9341982263368E-02
(PID.TID 0000.0001) %MON advcfl_wvel_max              =   6.9728482487269E-02
(PID.TID 0000.0001) %MON advcfl_W_hf_max              =   6.9728482487269E-02
(PID.TID 0000.0001) %MON pe_b_mean                    =   3.4236286939526E-09
(PID.TID 0000.0001) %MON ke_max                       =   1.4894177007722E-04
(PID.TID 0000.0001) %MON ke_mean                      =   7.2244541302803E-06
(PID.TID 0000.0001) %MON ke_vol                       =   2.5000000000000E+11
(PID.TID 0000.0001) %MON vort_r_min                   =  -1.9896863834549E-06
(PID.TID 0000.0001) %MON vort_r_max                   =   2.0113991079595E-06
(PID.TID 0000.0001) %MON vort_a_mean                  =   7.2899999999999E-05
(PID.TID 0000.0001) %MON vort_a_sd                    =   5.1533503510347E-07
(PID.TID 0000.0001) %MON vort_p_mean                  =   7.7363265306121E-05
(PID.TID 0000.0001) %MON vort_p_sd                    =   3.0926965934501E-05
(PID.TID 0000.0001) %MON surfExpan_theta_mean         =  -1.0887833457118E-13
(PID.TID 0000.0001) %MON surfExpan_salt_mean          =  -2.6877423187192E-17
(PID.TID 0000.0001) // =======================================================
(PID.TID 0000.0001) // End MONITOR dynamic field statistics
(PID.TID 0000.0001) // =======================================================
 cg2d: Sum(rhs),rhsMax =   1.60098713800072E-13  6.52930779629912E-04
(PID.TID 0000.0001)                    cg2d_init_res =    4.01898192334804E-02
(PID.TID 0000.0001)                       cg2d_iters =    75
(PID.TID 0000.0001)                         cg2d_res =    7.70714093308143E-12
(PID.TID 0000.0001) // =======================================================
(PID.TID 0000.0001) // Begin MONITOR dynamic field statistics
(PID.TID 0000.0001) // =======================================================
(PID.TID 0000.0001) %MON time_tsnumber                =                    10
(PID.TID 0000.0001) %MON time_secondsf                =   1.2000000000000E+04
(PID.TID 0000.0001) %MON dynstat_eta_max              =   4.0811291690304E-04
(PID.TID 0000.0001) %MON dynstat_eta_min              =  -4.0739186887986E-04
(PID.TID 0000.0001) %MON dynstat_eta_mean             =   1.0423857449982E-17
(PID.TID 0000.0001) %MON dynstat_eta_sd               =   3.7361944869483E-04
(PID.TID 0000.0001) %MON dynstat_eta_del2             =   3.7816323216492E-06
(PID.TID 0000.0001) %MON dynstat_uvel_max             =   7.6802074900571E-03
(PID.TID 0000.0001) %MON dynstat_uvel_min             =  -7.6907645746655E-03
(PID.TID 0000.0001) %MON dynstat_uvel_mean            =  -9.1602787802067E-07
(PID.TID 0000.0001) %MON dynstat_uvel_sd              =   1.7092447936950E-03
(PID.TID 0000.0001) %MON dynstat_uvel_del2            =   5.1574789542575E-05
(PID.TID 0000.0001) %MON dynstat_vvel_max             =   1.7341992715052E-02
(PID.TID 0000.0001) %MON dynstat_vvel_min             =  -1.7341021574613E-02
(PID.TID 0000.0001) %MON dynstat_vvel_mean            =   7.2313556192829E-11
(PID.TID 0000.0001) %MON dynstat_vvel_sd              =   3.8931033247667E-03
(PID.TID 0000.0001) %MON dynstat_vvel_del2            =   1.3095985635093E-04
(PID.TID 0000.0001) %MON dynstat_wvel_max             =   3.1361326184830E-04
(PID.TID 0000.0001) %MON dynstat_wvel_min             =  -3.1371415266180E-04
(PID.TID 0000.0001) %MON dynstat_wvel_mean            =  -9.3903097594472E-22
(PID.TID 0000.0001) %MON dynstat_wvel_sd              =   9.7070934364026E-05
(PID.TID 0000.0001) %MON dynstat_wvel_del2            =   7.3951730492374E-06
(PID.TID 0000.0001) %MON dynstat_theta_max            =   1.7020391872709E+01
(PID.TID 0000.0001) %MON dynstat_theta_min            =   1.6979608188987E+01
(PID.TID 0000.0001) %MON dynstat_theta_mean           =   1.6999999916891E+01
(PID.TID 0000.0001) %MON dynstat_theta_sd             =   1.8684615399764E-02
(PID.TID 0000.0001) %MON dynstat_theta_del2           =   1.9239320242546E-04
(PID.TID 0000.0001) %MON dynstat_salt_max             =   1.7020387109310E+01
(PID.TID 0000.0001) %MON dynstat_salt_min             =   1.6979612982854E+01
(PID.TID 0000.0001) %MON dynstat_salt_mean            =   1.7000000005831E+01
(PID.TID 0000.0001) %MON dynstat_salt_sd              =   1.8685297908389E-02
(PID.TID 0000.0001) %MON dynstat_salt_del2            =   1.8857926404609E-04
(PID.TID 0000.0001) %MON advcfl_uvel_max              =   9.2289174895986E-03
(PID.TID 0000.0001) %MON advcfl_vvel_max              =   2.0810391258062E-02
(PID.TID 0000.0001) %MON advcfl_wvel_max              =   7.5291396638831E-02
(PID.TID 0000.0001) %MON advcfl_W_hf_max              =   7.5291396638831E-02
(PID.TID 0000.0001) %MON pe_b_mean                    =   3.4234813521652E-09
(PID.TID 0000.0001) %MON ke_max                       =   1.7818587675921E-04
(PID.TID 0000.0001) %MON ke_mean                      =   8.7357609806487E-06
(PID.TID 0000.0001) %MON ke_vol                       =   2.5000000000000E+11
(PID.TID 0000.0001) %MON vort_r_min                   =  -2.3704859842909E-06
(PID.TID 0000.0001) %MON vort_r_max                   =   2.3984154061871E-06
(PID.TID 0000.0001) %MON vort_a_mean                  =   7.2900000000000E-05
(PID.TID 0000.0001) %MON vort_a_sd                    =   6.2133423332366E-07
(PID.TID 0000.0001) %MON vort_p_mean                  =   7.7363265306123E-05
(PID.TID 0000.0001) %MON vort_p_sd                    =   3.0929033049281E-05
(PID.TID 0000.0001) %MON surfExpan_theta_mean         =  -1.2467095417189E-13
(PID.TID 0000.0001) %MON surfExpan_salt_mean          =  -1.6060443632262E-17
(PID.TID 0000.0001) // =======================================================
(PID.TID 0000.0001) // End MONITOR dynamic field statistics
(PID.TID 0000.0001) // =======================================================
 cg2d: Sum(rhs),rhsMax =  -7.81174712589927E-14  6.50425313415198E-04
(PID.TID 0000.0001)                    cg2d_init_res =    5.49807738925199E-02
(PID.TID 0000.0001)                       cg2d_iters =    75
(PID.TID 0000.0001)                         cg2d_res =    8.51463936686054E-12
(PID.TID 0000.0001) // =======================================================
(PID.TID 0000.0001) // Begin MONITOR dynamic field statistics
(PID.TID 0000.0001) // =======================================================
(PID.TID 0000.0001) %MON time_tsnumber                =                    11
(PID.TID 0000.0001) %MON time_secondsf                =   1.3200000000000E+04
(PID.TID 0000.0001) %MON dynstat_eta_max              =   4.0808827527730E-04
(PID.TID 0000.0001) %MON dynstat_eta_min              =  -4.0741638299515E-04
(PID.TID 0000.0001) %MON dynstat_eta_mean             =   6.6465865039556E-18
(PID.TID 0000.0001) %MON dynstat_eta_sd               =   3.7360927012337E-04
(PID.TID 0000.0001) %MON dynstat_eta_del2             =   3.7754086271034E-06
(PID.TID 0000.0001) %MON dynstat_uvel_max             =   9.0614717383014E-03
(PID.TID 0000.0001) %MON dynstat_uvel_min             =  -9.0762801954438E-03
(PID.TID 0000.0001) %MON dynstat_uvel_mean            =  -9.1699421496112E-07
(PID.TID 0000.0001) %MON dynstat_uvel_sd              =   2.0336038327260E-03
(PID.TID 0000.0001) %MON dynstat_uvel_del2            =   6.0250704312528E-05
(PID.TID 0000.0001) %MON dynstat_vvel_max             =   1.8429710023206E-02
(PID.TID 0000.0001) %MON dynstat_vvel_min             =  -1.8429349611741E-02
(PID.TID 0000.0001) %MON dynstat_vvel_mean            =   9.2163468356449E-11
(PID.TID 0000.0001) %MON dynstat_vvel_sd              =   4.1513536618306E-03
(PID.TID 0000.0001) %MON dynstat_vvel_del2            =   1.3975246906178E-04
(PID.TID 0000.0001) %MON dynstat_wvel_max             =   3.3446005300223E-04
(PID.TID 0000.0001) %MON dynstat_wvel_min             =  -3.3460119163625E-04
(PID.TID 0000.0001) %MON dynstat_wvel_mean            =  -2.0865831866528E-21
(PID.TID 0000.0001) %MON dynstat_wvel_sd              =   1.0305255817686E-04
(PID.TID 0000.0001) %MON dynstat_wvel_del2            =   7.8162660311594E-06
(PID.TID 0000.0001) %MON dynstat_theta_max            =   1.7020391872709E+01
(PID.TID 0000.0001) %MON dynstat_theta_min            =   1.6979608188987E+01
(PID.TID 0000.0001) %MON dynstat_theta_mean           =   1.6999999916892E+01
(PID.TID 0000.0001) %MON dynstat_theta_sd             =   1.8684483759197E-02
(PID.TID 0000.0001) %MON dynstat_theta_del2           =   1.9287557365401E-04
(PID.TID 0000.0001) %MON dynstat_salt_max             =   1.7020387109310E+01
(PID.TID 0000.0001) %MON dynstat_salt_min             =   1.6979612982854E+01
(PID.TID 0000.0001) %MON dynstat_salt_mean            =   1.7000000005831E+01
(PID.TID 0000.0001) %MON dynstat_salt_sd              =   1.8685288069636E-02
(PID.TID 0000.0001) %MON dynstat_salt_del2            =   1.8862397221776E-04
(PID.TID 0000.0001) %MON advcfl_uvel_max              =   1.0891536234533E-02
(PID.TID 0000.0001) %MON advcfl_vvel_max              =   2.2115652027847E-02
(PID.TID 0000.0001) %MON advcfl_wvel_max              =   8.0304285992700E-02
(PID.TID 0000.0001) %MON advcfl_W_hf_max              =   8.0304285992700E-02
(PID.TID 0000.0001) %MON pe_b_mean                    =   3.4232948218600E-09
(PID.TID 0000.0001) %MON ke_max                       =   2.0871458208926E-04
(PID.TID 0000.0001) %MON ke_mean                      =   1.0339966562963E-05
(PID.TID 0000.0001) %MON ke_vol                       =   2.5000000000000E+11
(PID.TID 0000.0001) %MON vort_r_min                   =  -2.7646131615592E-06
(PID.TID 0000.0001) %MON vort_r_max                   =   2.7980046842131E-06
(PID.TID 0000.0001) %MON vort_a_mean                  =   7.2900000000001E-05
(PID.TID 0000.0001) %MON vort_a_sd                    =   7.3309465644157E-07
(PID.TID 0000.0001) %MON vort_p_mean                  =   7.7363265306123E-05
(PID.TID 0000.0001) %MON vort_p_sd                    =   3.0931629846004E-05
(PID.TID 0000.0001) %MON surfExpan_theta_mean         =  -1.3499417760582E-13
(PID.TID 0000.0001) %MON surfExpan_salt_mean          =  -2.6728475271370E-18
(PID.TID 0000.0001) // =======================================================
(PID.TID 0000.0001) // End MONITOR dynamic field statistics
(PID.TID 0000.0001) // =======================================================
 cg2d: Sum(rhs),rhsMax =  -6.18433798095508E-14  6.47118408293381E-04
(PID.TID 0000.0001)                    cg2d_init_res =    7.45094058040007E-02
(PID.TID 0000.0001)                       cg2d_iters =    75
(PID.TID 0000.0001)                         cg2d_res =    9.29253254827770E-12
(PID.TID 0000.0001) // =======================================================
(PID.TID 0000.0001) // Begin MONITOR dynamic field statistics
(PID.TID 0000.0001) // =======================================================
(PID.TID 0000.0001) %MON time_tsnumber                =                    12
(PID.TID 0000.0001) %MON time_secondsf                =   1.4400000000000E+04
(PID.TID 0000.0001) %MON dynstat_eta_max              =   4.0802641358159E-04
(PID.TID 0000.0001) %MON dynstat_eta_min              =  -4.0747804882827E-04
(PID.TID 0000.0001) %MON dynstat_eta_mean             =   2.3270243715290E-18
(PID.TID 0000.0001) %MON dynstat_eta_sd               =   3.7359676114074E-04
(PID.TID 0000.0001) %MON dynstat_eta_del2             =   3.7671306781001E-06
(PID.TID 0000.0001) %MON dynstat_uvel_max             =   1.0500136733126E-02
(PID.TID 0000.0001) %MON dynstat_uvel_min             =  -1.0520420019542E-02
(PID.TID 0000.0001) %MON dynstat_uvel_mean            =  -9.1838580861542E-07
(PID.TID 0000.0001) %MON dynstat_uvel_sd              =   2.3758000957108E-03
(PID.TID 0000.0001) %MON dynstat_uvel_del2            =   6.9321434794379E-05
(PID.TID 0000.0001) %MON dynstat_vvel_max             =   1.9378315111862E-02
(PID.TID 0000.0001) %MON dynstat_vvel_min             =  -1.9378908417152E-02
(PID.TID 0000.0001) %MON dynstat_vvel_mean            =   1.1412290773210E-10
(PID.TID 0000.0001) %MON dynstat_vvel_sd              =   4.3779478365892E-03
(PID.TID 0000.0001) %MON dynstat_vvel_del2            =   1.4758235467883E-04
(PID.TID 0000.0001) %MON dynstat_wvel_max             =   3.5297135974661E-04
(PID.TID 0000.0001) %MON dynstat_wvel_min             =  -3.5313052985210E-04
(PID.TID 0000.0001) %MON dynstat_wvel_mean            =  -3.9967688632299E-22
(PID.TID 0000.0001) %MON dynstat_wvel_sd              =   1.0826048542394E-04
(PID.TID 0000.0001) %MON dynstat_wvel_del2            =   8.1839246217431E-06
(PID.TID 0000.0001) %MON dynstat_theta_max            =   1.7020391872709E+01
(PID.TID 0000.0001) %MON dynstat_theta_min            =   1.6979608188987E+01
(PID.TID 0000.0001) %MON dynstat_theta_mean           =   1.6999999916893E+01
(PID.TID 0000.0001) %MON dynstat_theta_sd             =   1.8684343572695E-02
(PID.TID 0000.0001) %MON dynstat_theta_del2           =   1.9335151303242E-04
(PID.TID 0000.0001) %MON dynstat_salt_max             =   1.7020387109310E+01
(PID.TID 0000.0001) %MON dynstat_salt_min             =   1.6979612982853E+01
(PID.TID 0000.0001) %MON dynstat_salt_mean            =   1.7000000005831E+01
(PID.TID 0000.0001) %MON dynstat_salt_sd              =   1.8685276537088E-02
(PID.TID 0000.0001) %MON dynstat_salt_del2            =   1.8867547693027E-04
(PID.TID 0000.0001) %MON advcfl_uvel_max              =   1.2624504023451E-02
(PID.TID 0000.0001) %MON advcfl_vvel_max              =   2.3254690100583E-02
(PID.TID 0000.0001) %MON advcfl_wvel_max              =   8.4751327164503E-02
(PID.TID 0000.0001) %MON advcfl_W_hf_max              =   8.4751327164503E-02
(PID.TID 0000.0001) %MON pe_b_mean                    =   3.4230655919022E-09
(PID.TID 0000.0001) %MON ke_max                       =   2.4019227368123E-04
(PID.TID 0000.0001) %MON ke_mean                      =   1.2022098553856E-05
(PID.TID 0000.0001) %MON ke_vol                       =   2.5000000000000E+11
(PID.TID 0000.0001) %MON vort_r_min                   =  -3.1678851564810E-06
(PID.TID 0000.0001) %MON vort_r_max                   =   3.2051261676428E-06
(PID.TID 0000.0001) %MON vort_a_mean                  =   7.2900000000000E-05
(PID.TID 0000.0001) %MON vort_a_sd                    =   8.4956296974279E-07
(PID.TID 0000.0001) %MON vort_p_mean                  =   7.7363265306123E-05
(PID.TID 0000.0001) %MON vort_p_sd                    =   3.0934791736943E-05
(PID.TID 0000.0001) %MON surfExpan_theta_mean         =  -1.3765182472936E-13
(PID.TID 0000.0001) %MON surfExpan_salt_mean          =   1.2743544069287E-17
(PID.TID 0000.0001) // =======================================================
(PID.TID 0000.0001) // End MONITOR dynamic field statistics
(PID.TID 0000.0001) // =======================================================
 cg2d: Sum(rhs),rhsMax =  -5.14331958099967E-14  6.42919100388740E-04
(PID.TID 0000.0001)                    cg2d_init_res =    9.72011088114700E-02
(PID.TID 0000.0001)                       cg2d_iters =    76
(PID.TID 0000.0001)                         cg2d_res =    7.36191646997681E-12
(PID.TID 0000.0001) // =======================================================
(PID.TID 0000.0001) // Begin MONITOR dynamic field statistics
(PID.TID 0000.0001) // =======================================================
(PID.TID 0000.0001) %MON time_tsnumber                =                    13
(PID.TID 0000.0001) %MON time_secondsf                =   1.5600000000000E+04
(PID.TID 0000.0001) %MON dynstat_eta_max              =   4.0792187163131E-04
(PID.TID 0000.0001) %MON dynstat_eta_min              =  -4.0758230937767E-04
(PID.TID 0000.0001) %MON dynstat_eta_mean             =  -1.1681907587380E-17
(PID.TID 0000.0001) %MON dynstat_eta_sd               =   3.7358181558721E-04
(PID.TID 0000.0001) %MON dynstat_eta_del2             =   3.7635085121150E-06
(PID.TID 0000.0001) %MON dynstat_uvel_max             =   1.1983097637032E-02
(PID.TID 0000.0001) %MON dynstat_uvel_min             =  -1.2010105747978E-02
(PID.TID 0000.0001) %MON dynstat_uvel_mean            =  -9.2029404779936E-07
(PID.TID 0000.0001) %MON dynstat_uvel_sd              =   2.7329986203413E-03
(PID.TID 0000.0001) %MON dynstat_uvel_del2            =   7.8679634176866E-05
(PID.TID 0000.0001) %MON dynstat_vvel_max             =   2.0185664263415E-02
(PID.TID 0000.0001) %MON dynstat_vvel_min             =  -2.0187492606168E-02
(PID.TID 0000.0001) %MON dynstat_vvel_mean            =   1.3816457662687E-10
(PID.TID 0000.0001) %MON dynstat_vvel_sd              =   4.5717192602768E-03
(PID.TID 0000.0001) %MON dynstat_vvel_del2            =   1.5443000695752E-04
(PID.TID 0000.0001) %MON dynstat_wvel_max             =   3.6909855634673E-04
(PID.TID 0000.0001) %MON dynstat_wvel_min             =  -3.6925933308190E-04
(PID.TID 0000.0001) %MON dynstat_wvel_mean            =   3.7734125626910E-22
(PID.TID 0000.0001) %MON dynstat_wvel_sd              =   1.1269068786278E-04
(PID.TID 0000.0001) %MON dynstat_wvel_del2            =   8.5000447781950E-06
(PID.TID 0000.0001) %MON dynstat_theta_max            =   1.7020391872709E+01
(PID.TID 0000.0001) %MON dynstat_theta_min            =   1.6979608188987E+01
(PID.TID 0000.0001) %MON dynstat_theta_mean           =   1.6999999916894E+01
(PID.TID 0000.0001) %MON dynstat_theta_sd             =   1.8684195651635E-02
(PID.TID 0000.0001) %MON dynstat_theta_del2           =   1.9381334838695E-04
(PID.TID 0000.0001) %MON dynstat_salt_max             =   1.7020387109310E+01
(PID.TID 0000.0001) %MON dynstat_salt_min             =   1.6979612982853E+01
(PID.TID 0000.0001) %MON dynstat_salt_mean            =   1.7000000005831E+01
(PID.TID 0000.0001) %MON dynstat_salt_sd              =   1.8685263228697E-02
(PID.TID 0000.0001) %MON dynstat_salt_del2            =   1.8873380535713E-04
(PID.TID 0000.0001) %MON advcfl_uvel_max              =   1.4412126897574E-02
(PID.TID 0000.0001) %MON advcfl_vvel_max              =   2.4224991127401E-02
(PID.TID 0000.0001) %MON advcfl_wvel_max              =   8.8622239939655E-02
(PID.TID 0000.0001) %MON advcfl_W_hf_max              =   8.8622239939655E-02
(PID.TID 0000.0001) %MON pe_b_mean                    =   3.4227917212907E-09
(PID.TID 0000.0001) %MON ke_max                       =   2.7228928865902E-04
(PID.TID 0000.0001) %MON ke_mean                      =   1.3766937310361E-05
(PID.TID 0000.0001) %MON ke_vol                       =   2.5000000000000E+11
(PID.TID 0000.0001) %MON vort_r_min                   =  -3.5764904003107E-06
(PID.TID 0000.0001) %MON vort_r_max                   =   3.6483657580507E-06
(PID.TID 0000.0001) %MON vort_a_mean                  =   7.2900000000000E-05
(PID.TID 0000.0001) %MON vort_a_sd                    =   9.6969838699035E-07
(PID.TID 0000.0001) %MON vort_p_mean                  =   7.7363265306122E-05
(PID.TID 0000.0001) %MON vort_p_sd                    =   3.0938540334480E-05
(PID.TID 0000.0001) %MON surfExpan_theta_mean         =  -1.3081023916644E-13
(PID.TID 0000.0001) %MON surfExpan_salt_mean          =   2.9362717518501E-17
(PID.TID 0000.0001) // =======================================================
(PID.TID 0000.0001) // End MONITOR dynamic field statistics
(PID.TID 0000.0001) // =======================================================
 cg2d: Sum(rhs),rhsMax =   6.07945768379969E-14  6.37749789993260E-04
(PID.TID 0000.0001)                    cg2d_init_res =    1.22020635185958E-01
(PID.TID 0000.0001)                       cg2d_iters =    76
(PID.TID 0000.0001)                         cg2d_res =    8.06014041934598E-12
(PID.TID 0000.0001) // =======================================================
(PID.TID 0000.0001) // Begin MONITOR dynamic field statistics
(PID.TID 0000.0001) // =======================================================
(PID.TID 0000.0001) %MON time_tsnumber                =                    14
(PID.TID 0000.0001) %MON time_secondsf                =   1.6800000000000E+04
(PID.TID 0000.0001) %MON dynstat_eta_max              =   4.0777011896989E-04
(PID.TID 0000.0001) %MON dynstat_eta_min              =  -4.0773367755327E-04
(PID.TID 0000.0001) %MON dynstat_eta_mean             =  -7.5336614030475E-18
(PID.TID 0000.0001) %MON dynstat_eta_sd               =   3.7356444832314E-04
(PID.TID 0000.0001) %MON dynstat_eta_del2             =   3.7664452743609E-06
(PID.TID 0000.0001) %MON dynstat_uvel_max             =   1.3497538411183E-02
(PID.TID 0000.0001) %MON dynstat_uvel_min             =  -1.3532473689541E-02
(PID.TID 0000.0001) %MON dynstat_uvel_mean            =  -9.2280328322107E-07
(PID.TID 0000.0001) %MON dynstat_uvel_sd              =   3.1022980089323E-03
(PID.TID 0000.0001) %MON dynstat_uvel_del2            =   8.8273502372139E-05
(PID.TID 0000.0001) %MON dynstat_vvel_max             =   2.0850620184419E-02
(PID.TID 0000.0001) %MON dynstat_vvel_min             =  -2.0853954656855E-02
(PID.TID 0000.0001) %MON dynstat_vvel_mean            =   1.6390418372900E-10
(PID.TID 0000.0001) %MON dynstat_vvel_sd              =   4.7317641229670E-03
(PID.TID 0000.0001) %MON dynstat_vvel_del2            =   1.6028957446021E-04
(PID.TID 0000.0001) %MON dynstat_wvel_max             =   3.8279306351851E-04
(PID.TID 0000.0001) %MON dynstat_wvel_min             =  -3.8296699690038E-04
(PID.TID 0000.0001) %MON dynstat_wvel_mean            =   5.0277246693655E-21
(PID.TID 0000.0001) %MON dynstat_wvel_sd              =   1.1634475101312E-04
(PID.TID 0000.0001) %MON dynstat_wvel_del2            =   8.7667021239414E-06
(PID.TID 0000.0001) %MON dynstat_theta_max            =   1.7020391872709E+01
(PID.TID 0000.0001) %MON dynstat_theta_min            =   1.6979608188987E+01
(PID.TID 0000.0001) %MON dynstat_theta_mean           =   1.6999999916894E+01
(PID.TID 0000.0001) %MON dynstat_theta_sd             =   1.8684040859235E-02
(PID.TID 0000.0001) %MON dynstat_theta_del2           =   1.9425419991289E-04
(PID.TID 0000.0001) %MON dynstat_salt_max             =   1.7020387109310E+01
(PID.TID 0000.0001) %MON dynstat_salt_min             =   1.6979612982853E+01
(PID.TID 0000.0001) %MON dynstat_salt_mean            =   1.7000000005831E+01
(PID.TID 0000.0001) %MON dynstat_salt_sd              =   1.8685248076715E-02
(PID.TID 0000.0001) %MON dynstat_salt_del2            =   1.8879888784041E-04
(PID.TID 0000.0001) %MON advcfl_uvel_max              =   1.6238968427449E-02
(PID.TID 0000.0001) %MON advcfl_vvel_max              =   2.5024745588225E-02
(PID.TID 0000.0001) %MON advcfl_wvel_max              =   9.1912079256092E-02
(PID.TID 0000.0001) %MON advcfl_W_hf_max              =   9.1912079256092E-02
(PID.TID 0000.0001) %MON pe_b_mean                    =   3.4224734876751E-09
(PID.TID 0000.0001) %MON ke_max                       =   3.0468393985903E-04
(PID.TID 0000.0001) %MON ke_mean                      =   1.5559130917286E-05
(PID.TID 0000.0001) %MON ke_vol                       =   2.5000000000000E+11
(PID.TID 0000.0001) %MON vort_r_min                   =  -3.9869112940017E-06
(PID.TID 0000.0001) %MON vort_r_max                   =   4.1463957193060E-06
(PID.TID 0000.0001) %MON vort_a_mean                  =   7.2900000000000E-05
(PID.TID 0000.0001) %MON vort_a_sd                    =   1.0924780894473E-06
(PID.TID 0000.0001) %MON vort_p_mean                  =   7.7363265306122E-05
(PID.TID 0000.0001) %MON vort_p_sd                    =   3.0942882410905E-05
(PID.TID 0000.0001) %MON surfExpan_theta_mean         =  -1.1289215971225E-13
(PID.TID 0000.0001) %MON surfExpan_salt_mean          =   4.6319088077935E-17
(PID.TID 0000.0001) // =======================================================
(PID.TID 0000.0001) // End MONITOR dynamic field statistics
(PID.TID 0000.0001) // =======================================================
 cg2d: Sum(rhs),rhsMax =   6.30974222523562E-14  6.38661952639584E-04
(PID.TID 0000.0001)                    cg2d_init_res =    1.46564180982160E-01
(PID.TID 0000.0001)                       cg2d_iters =    76
(PID.TID 0000.0001)                         cg2d_res =    8.74855621996576E-12
(PID.TID 0000.0001) // =======================================================
(PID.TID 0000.0001) // Begin MONITOR dynamic field statistics
(PID.TID 0000.0001) // =======================================================
(PID.TID 0000.0001) %MON time_tsnumber                =                    15
(PID.TID 0000.0001) %MON time_secondsf                =   1.8000000000000E+04
(PID.TID 0000.0001) %MON dynstat_eta_max              =   4.0756771521763E-04
(PID.TID 0000.0001) %MON dynstat_eta_min              =  -4.0793557843509E-04
(PID.TID 0000.0001) %MON dynstat_eta_mean             =  -9.2427452080823E-18
(PID.TID 0000.0001) %MON dynstat_eta_sd               =   3.7354481649959E-04
(PID.TID 0000.0001) %MON dynstat_eta_del2             =   3.7706067305173E-06
(PID.TID 0000.0001) %MON dynstat_uvel_max             =   1.5031005548610E-02
(PID.TID 0000.0001) %MON dynstat_uvel_min             =  -1.5074950899576E-02
(PID.TID 0000.0001) %MON dynstat_uvel_mean            =  -9.2598443267979E-07
(PID.TID 0000.0001) %MON dynstat_uvel_sd              =   3.4807524200046E-03
(PID.TID 0000.0001) %MON dynstat_uvel_del2            =   9.8032962334516E-05
(PID.TID 0000.0001) %MON dynstat_vvel_max             =   2.1373041380831E-02
(PID.TID 0000.0001) %MON dynstat_vvel_min             =  -2.1378117004880E-02
(PID.TID 0000.0001) %MON dynstat_vvel_mean            =   1.9084417161136E-10
(PID.TID 0000.0001) %MON dynstat_vvel_sd              =   4.8574448385648E-03
(PID.TID 0000.0001) %MON dynstat_vvel_del2            =   1.6515921351845E-04
(PID.TID 0000.0001) %MON dynstat_wvel_max             =   3.9404826833256E-04
(PID.TID 0000.0001) %MON dynstat_wvel_min             =  -3.9425382050598E-04
(PID.TID 0000.0001) %MON dynstat_wvel_mean            =   4.6586669175957E-21
(PID.TID 0000.0001) %MON dynstat_wvel_sd              =   1.1922968701016E-04
(PID.TID 0000.0001) %MON dynstat_wvel_del2            =   8.9862487604994E-06
(PID.TID 0000.0001) %MON dynstat_theta_max            =   1.7020391872709E+01
(PID.TID 0000.0001) %MON dynstat_theta_min            =   1.6979608188987E+01
(PID.TID 0000.0001) %MON dynstat_theta_mean           =   1.6999999916895E+01
(PID.TID 0000.0001) %MON dynstat_theta_sd             =   1.8683880106002E-02
(PID.TID 0000.0001) %MON dynstat_theta_del2           =   1.9466813072881E-04
(PID.TID 0000.0001) %MON dynstat_salt_max             =   1.7020387109310E+01
(PID.TID 0000.0001) %MON dynstat_salt_min             =   1.6979612982853E+01
(PID.TID 0000.0001) %MON dynstat_salt_mean            =   1.7000000005831E+01
(PID.TID 0000.0001) %MON dynstat_salt_sd              =   1.8685231028183E-02
(PID.TID 0000.0001) %MON dynstat_salt_del2            =   1.8887073227829E-04
(PID.TID 0000.0001) %MON advcfl_uvel_max              =   1.8089941079491E-02
(PID.TID 0000.0001) %MON advcfl_vvel_max              =   2.5653740405856E-02
(PID.TID 0000.0001) %MON advcfl_wvel_max              =   9.4620916921435E-02
(PID.TID 0000.0001) %MON advcfl_W_hf_max              =   9.4620916921435E-02
(PID.TID 0000.0001) %MON pe_b_mean                    =   3.4221137766243E-09
(PID.TID 0000.0001) %MON ke_max                       =   3.3706473163084E-04
(PID.TID 0000.0001) %MON ke_mean                      =   1.7383308906064E-05
(PID.TID 0000.0001) %MON ke_vol                       =   2.5000000000000E+11
(PID.TID 0000.0001) %MON vort_r_min                   =  -4.3959052470346E-06
(PID.TID 0000.0001) %MON vort_r_max                   =   4.6530801165267E-06
(PID.TID 0000.0001) %MON vort_a_mean                  =   7.2900000000000E-05
(PID.TID 0000.0001) %MON vort_a_sd                    =   1.2169024419963E-06
(PID.TID 0000.0001) %MON vort_p_mean                  =   7.7363265306123E-05
(PID.TID 0000.0001) %MON vort_p_sd                    =   3.0947809383980E-05
(PID.TID 0000.0001) %MON surfExpan_theta_mean         =  -8.2821163464402E-14
(PID.TID 0000.0001) %MON surfExpan_salt_mean          =   6.3189848673974E-17
(PID.TID 0000.0001) // =======================================================
(PID.TID 0000.0001) // End MONITOR dynamic field statistics
(PID.TID 0000.0001) // =======================================================
 cg2d: Sum(rhs),rhsMax =   4.54319199448550E-14  6.42714042597523E-04
(PID.TID 0000.0001)                    cg2d_init_res =    1.70148277011064E-01
(PID.TID 0000.0001)                       cg2d_iters =    76
(PID.TID 0000.0001)                         cg2d_res =    9.44866984815109E-12
(PID.TID 0000.0001) // =======================================================
(PID.TID 0000.0001) // Begin MONITOR dynamic field statistics
(PID.TID 0000.0001) // =======================================================
(PID.TID 0000.0001) %MON time_tsnumber                =                    16
(PID.TID 0000.0001) %MON time_secondsf                =   1.9200000000000E+04
(PID.TID 0000.0001) %MON dynstat_eta_max              =   4.0731243685838E-04
(PID.TID 0000.0001) %MON dynstat_eta_min              =  -4.0819022331485E-04
(PID.TID 0000.0001) %MON dynstat_eta_mean             =   3.2536066080224E-18
(PID.TID 0000.0001) %MON dynstat_eta_sd               =   3.7352323021647E-04
(PID.TID 0000.0001) %MON dynstat_eta_del2             =   3.7758195251625E-06
(PID.TID 0000.0001) %MON dynstat_uvel_max             =   1.6571469056555E-02
(PID.TID 0000.0001) %MON dynstat_uvel_min             =  -1.6625324793436E-02
(PID.TID 0000.0001) %MON dynstat_uvel_mean            =  -9.2988920166290E-07
(PID.TID 0000.0001) %MON dynstat_uvel_sd              =   3.8653935419596E-03
(PID.TID 0000.0001) %MON dynstat_uvel_del2            =   1.0791690514750E-04
(PID.TID 0000.0001) %MON dynstat_vvel_max             =   2.1753764342541E-02
(PID.TID 0000.0001) %MON dynstat_vvel_min             =  -2.1760756331023E-02
(PID.TID 0000.0001) %MON dynstat_vvel_mean            =   2.1840921185588E-10
(PID.TID 0000.0001) %MON dynstat_vvel_sd              =   4.9483919656522E-03
(PID.TID 0000.0001) %MON dynstat_vvel_del2            =   1.6904693882778E-04
(PID.TID 0000.0001) %MON dynstat_wvel_max             =   4.0287759296562E-04
(PID.TID 0000.0001) %MON dynstat_wvel_min             =  -4.0313938831917E-04
(PID.TID 0000.0001) %MON dynstat_wvel_mean            =  -1.3185794270463E-21
(PID.TID 0000.0001) %MON dynstat_wvel_sd              =   1.2135774855632E-04
(PID.TID 0000.0001) %MON dynstat_wvel_del2            =   9.1612567763582E-06
(PID.TID 0000.0001) %MON dynstat_theta_max            =   1.7020391872709E+01
(PID.TID 0000.0001) %MON dynstat_theta_min            =   1.6979608188987E+01
(PID.TID 0000.0001) %MON dynstat_theta_mean           =   1.6999999916895E+01
(PID.TID 0000.0001) %MON dynstat_theta_sd             =   1.8683714344028E-02
(PID.TID 0000.0001) %MON dynstat_theta_del2           =   1.9505019261687E-04
(PID.TID 0000.0001) %MON dynstat_salt_max             =   1.7020387109310E+01
(PID.TID 0000.0001) %MON dynstat_salt_min             =   1.6979612982853E+01
(PID.TID 0000.0001) %MON dynstat_salt_mean            =   1.7000000005831E+01
(PID.TID 0000.0001) %MON dynstat_salt_sd              =   1.8685212045271E-02
(PID.TID 0000.0001) %MON dynstat_salt_del2            =   1.8894913847674E-04
(PID.TID 0000.0001) %MON advcfl_uvel_max              =   1.9950389752123E-02
(PID.TID 0000.0001) %MON advcfl_vvel_max              =   2.6112907597228E-02
(PID.TID 0000.0001) %MON advcfl_wvel_max              =   9.6753453196601E-02
(PID.TID 0000.0001) %MON advcfl_W_hf_max              =   9.6753453196601E-02
(PID.TID 0000.0001) %MON pe_b_mean                    =   3.4217182761157E-09
(PID.TID 0000.0001) %MON ke_max                       =   3.6913269183662E-04
(PID.TID 0000.0001) %MON ke_mean                      =   1.9224193911410E-05
(PID.TID 0000.0001) %MON ke_vol                       =   2.5000000000000E+11
(PID.TID 0000.0001) %MON vort_r_min                   =  -4.8005597600404E-06
(PID.TID 0000.0001) %MON vort_r_max                   =   5.1632035068818E-06
(PID.TID 0000.0001) %MON vort_a_mean                  =   7.2900000000000E-05
(PID.TID 0000.0001) %MON vort_a_sd                    =   1.3420000217966E-06
(PID.TID 0000.0001) %MON vort_p_mean                  =   7.7363265306123E-05
(PID.TID 0000.0001) %MON vort_p_sd                    =   3.0953297309733E-05
(PID.TID 0000.0001) %MON surfExpan_theta_mean         =  -4.0135006872203E-14
(PID.TID 0000.0001) %MON surfExpan_salt_mean          =   7.8923286061653E-17
(PID.TID 0000.0001) // =======================================================
(PID.TID 0000.0001) // End MONITOR dynamic field statistics
(PID.TID 0000.0001) // =======================================================
 cg2d: Sum(rhs),rhsMax =  -1.45134501205318E-13  6.47217630351904E-04
(PID.TID 0000.0001)                    cg2d_init_res =    1.92579073487645E-01
(PID.TID 0000.0001)                       cg2d_iters =    77
(PID.TID 0000.0001)                         cg2d_res =    8.89871973542979E-12
(PID.TID 0000.0001) // =======================================================
(PID.TID 0000.0001) // Begin MONITOR dynamic field statistics
(PID.TID 0000.0001) // =======================================================
(PID.TID 0000.0001) %MON time_tsnumber                =                    17
(PID.TID 0000.0001) %MON time_secondsf                =   2.0400000000000E+04
(PID.TID 0000.0001) %MON dynstat_eta_max              =   4.0700336878717E-04
(PID.TID 0000.0001) %MON dynstat_eta_min              =  -4.0849851915431E-04
(PID.TID 0000.0001) %MON dynstat_eta_mean             =  -1.6922770373906E-18
(PID.TID 0000.0001) %MON dynstat_eta_sd               =   3.7350015096899E-04
(PID.TID 0000.0001) %MON dynstat_eta_del2             =   3.7819802387014E-06
(PID.TID 0000.0001) %MON dynstat_uvel_max             =   1.8107372587070E-02
(PID.TID 0000.0001) %MON dynstat_uvel_min             =  -1.8171806505287E-02
(PID.TID 0000.0001) %MON dynstat_uvel_mean            =  -9.3454550233902E-07
(PID.TID 0000.0001) %MON dynstat_uvel_sd              =   4.2532523868024E-03
(PID.TID 0000.0001) %MON dynstat_uvel_del2            =   1.1801736996687E-04
(PID.TID 0000.0001) %MON dynstat_vvel_max             =   2.1994577357034E-02
(PID.TID 0000.0001) %MON dynstat_vvel_min             =  -2.2003579348516E-02
(PID.TID 0000.0001) %MON dynstat_vvel_mean            =   2.4596576940334E-10
(PID.TID 0000.0001) %MON dynstat_vvel_sd              =   5.0045046327553E-03
(PID.TID 0000.0001) %MON dynstat_vvel_del2            =   1.7198762836377E-04
(PID.TID 0000.0001) %MON dynstat_wvel_max             =   4.0931376198653E-04
(PID.TID 0000.0001) %MON dynstat_wvel_min             =  -4.0966082560951E-04
(PID.TID 0000.0001) %MON dynstat_wvel_mean            =  -4.8403700671602E-21
(PID.TID 0000.0001) %MON dynstat_wvel_sd              =   1.2274623679218E-04
(PID.TID 0000.0001) %MON dynstat_wvel_del2            =   9.2943761211613E-06
(PID.TID 0000.0001) %MON dynstat_theta_max            =   1.7020391872709E+01
(PID.TID 0000.0001) %MON dynstat_theta_min            =   1.6979608188987E+01
(PID.TID 0000.0001) %MON dynstat_theta_mean           =   1.6999999916895E+01
(PID.TID 0000.0001) %MON dynstat_theta_sd             =   1.8683544560919E-02
(PID.TID 0000.0001) %MON dynstat_theta_del2           =   1.9539647814848E-04
(PID.TID 0000.0001) %MON dynstat_salt_max             =   1.7020387109310E+01
(PID.TID 0000.0001) %MON dynstat_salt_min             =   1.6979612982853E+01
(PID.TID 0000.0001) %MON dynstat_salt_mean            =   1.7000000005831E+01
(PID.TID 0000.0001) %MON dynstat_salt_sd              =   1.8685191105618E-02
(PID.TID 0000.0001) %MON dynstat_salt_del2            =   1.8903357630776E-04
(PID.TID 0000.0001) %MON advcfl_uvel_max              =   2.1806167806344E-02
(PID.TID 0000.0001) %MON advcfl_vvel_max              =   2.6404295218219E-02
(PID.TID 0000.0001) %MON advcfl_wvel_max              =   9.8318598146284E-02
(PID.TID 0000.0001) %MON advcfl_W_hf_max              =   9.8318598146284E-02
(PID.TID 0000.0001) %MON pe_b_mean                    =   3.4212954470288E-09
(PID.TID 0000.0001) %MON ke_max                       =   4.0060367682281E-04
(PID.TID 0000.0001) %MON ke_mean                      =   2.1066710346857E-05
(PID.TID 0000.0001) %MON ke_vol                       =   2.5000000000000E+11
(PID.TID 0000.0001) %MON vort_r_min                   =  -5.1981741659953E-06
(PID.TID 0000.0001) %MON vort_r_max                   =   5.6717706004256E-06
(PID.TID 0000.0001) %MON vort_a_mean                  =   7.2900000000000E-05
(PID.TID 0000.0001) %MON vort_a_sd                    =   1.4668324244756E-06
(PID.TID 0000.0001) %MON vort_p_mean                  =   7.7363265306122E-05
(PID.TID 0000.0001) %MON vort_p_sd                    =   3.0959307351771E-05
(PID.TID 0000.0001) %MON surfExpan_theta_mean         =   1.4945511124785E-14
(PID.TID 0000.0001) %MON surfExpan_salt_mean          =   9.2902712724135E-17
(PID.TID 0000.0001) // =======================================================
(PID.TID 0000.0001) // End MONITOR dynamic field statistics
(PID.TID 0000.0001) // =======================================================
 cg2d: Sum(rhs),rhsMax =   7.75186121890203E-14  6.52129642165694E-04
(PID.TID 0000.0001)                    cg2d_init_res =    2.13259430954629E-01
(PID.TID 0000.0001)                       cg2d_iters =    77
(PID.TID 0000.0001)                         cg2d_res =    9.32228907076570E-12
(PID.TID 0000.0001) // =======================================================
(PID.TID 0000.0001) // Begin MONITOR dynamic field statistics
(PID.TID 0000.0001) // =======================================================
(PID.TID 0000.0001) %MON time_tsnumber                =                    18
(PID.TID 0000.0001) %MON time_secondsf                =   2.1600000000000E+04
(PID.TID 0000.0001) %MON dynstat_eta_max              =   4.0664095832679E-04
(PID.TID 0000.0001) %MON dynstat_eta_min              =  -4.0886001535096E-04
(PID.TID 0000.0001) %MON dynstat_eta_mean             =  -1.4714736530919E-17
(PID.TID 0000.0001) %MON dynstat_eta_sd               =   3.7347617662800E-04
(PID.TID 0000.0001) %MON dynstat_eta_del2             =   3.7889568597958E-06
(PID.TID 0000.0001) %MON dynstat_uvel_max             =   1.9627674766948E-02
(PID.TID 0000.0001) %MON dynstat_uvel_min             =  -1.9703088130510E-02
(PID.TID 0000.0001) %MON dynstat_uvel_mean            =  -9.3995447346794E-07
(PID.TID 0000.0001) %MON dynstat_uvel_sd              =   4.6413807379318E-03
(PID.TID 0000.0001) %MON dynstat_uvel_del2            =   1.2817336109623E-04
(PID.TID 0000.0001) %MON dynstat_vvel_max             =   2.2098185231257E-02
(PID.TID 0000.0001) %MON dynstat_vvel_min             =  -2.2109194174484E-02
(PID.TID 0000.0001) %MON dynstat_vvel_mean            =   2.7284975712442E-10
(PID.TID 0000.0001) %MON dynstat_vvel_sd              =   5.0259495580286E-03
(PID.TID 0000.0001) %MON dynstat_vvel_del2            =   1.7398169574429E-04
(PID.TID 0000.0001) %MON dynstat_wvel_max             =   4.1340790139885E-04
(PID.TID 0000.0001) %MON dynstat_wvel_min             =  -4.1387107667905E-04
(PID.TID 0000.0001) %MON dynstat_wvel_mean            =   4.4116629156135E-21
(PID.TID 0000.0001) %MON dynstat_wvel_sd              =   1.2341729942023E-04
(PID.TID 0000.0001) %MON dynstat_wvel_del2            =   9.3883532888871E-06
(PID.TID 0000.0001) %MON dynstat_theta_max            =   1.7020391872709E+01
(PID.TID 0000.0001) %MON dynstat_theta_min            =   1.6979608188987E+01
(PID.TID 0000.0001) %MON dynstat_theta_mean           =   1.6999999916895E+01
(PID.TID 0000.0001) %MON dynstat_theta_sd             =   1.8683371772642E-02
(PID.TID 0000.0001) %MON dynstat_theta_del2           =   1.9570414267024E-04
(PID.TID 0000.0001) %MON dynstat_salt_max             =   1.7020387109310E+01
(PID.TID 0000.0001) %MON dynstat_salt_min             =   1.6979612982853E+01
(PID.TID 0000.0001) %MON dynstat_salt_mean            =   1.7000000005831E+01
(PID.TID 0000.0001) %MON dynstat_salt_sd              =   1.8685168202390E-02
(PID.TID 0000.0001) %MON dynstat_salt_del2            =   1.8912336400817E-04
(PID.TID 0000.0001) %MON advcfl_uvel_max              =   2.3643705756612E-02
(PID.TID 0000.0001) %MON advcfl_vvel_max              =   2.6531033009381E-02
(PID.TID 0000.0001) %MON advcfl_wvel_max              =   9.9329058402973E-02
(PID.TID 0000.0001) %MON advcfl_W_hf_max              =   9.9329058402973E-02
(PID.TID 0000.0001) %MON pe_b_mean                    =   3.4208562468251E-09
(PID.TID 0000.0001) %MON ke_max                       =   4.3121054766143E-04
(PID.TID 0000.0001) %MON ke_mean                      =   2.2896089119707E-05
(PID.TID 0000.0001) %MON ke_vol                       =   2.5000000000000E+11
(PID.TID 0000.0001) %MON vort_r_min                   =  -5.5861789150742E-06
(PID.TID 0000.0001) %MON vort_r_max                   =   6.1740984932320E-06
(PID.TID 0000.0001) %MON vort_a_mean                  =   7.2900000000001E-05
(PID.TID 0000.0001) %MON vort_a_sd                    =   1.5904987917881E-06
(PID.TID 0000.0001) %MON vort_p_mean                  =   7.7363265306123E-05
(PID.TID 0000.0001) %MON vort_p_sd                    =   3.0965786684849E-05
(PID.TID 0000.0001) %MON surfExpan_theta_mean         =   8.1484468125467E-14
(PID.TID 0000.0001) %MON surfExpan_salt_mean          =   1.0463960442297E-16
(PID.TID 0000.0001) // =======================================================
(PID.TID 0000.0001) // End MONITOR dynamic field statistics
(PID.TID 0000.0001) // =======================================================
 cg2d: Sum(rhs),rhsMax =   6.95235969488950E-14  6.57403953489995E-04
(PID.TID 0000.0001)                    cg2d_init_res =    2.31691974129954E-01
(PID.TID 0000.0001)                       cg2d_iters =    77
(PID.TID 0000.0001)                         cg2d_res =    9.50488895342390E-12
(PID.TID 0000.0001) // =======================================================
(PID.TID 0000.0001) // Begin MONITOR dynamic field statistics
(PID.TID 0000.0001) // =======================================================
(PID.TID 0000.0001) %MON time_tsnumber                =                    19
(PID.TID 0000.0001) %MON time_secondsf                =   2.2800000000000E+04
(PID.TID 0000.0001) %MON dynstat_eta_max              =   4.0622703027385E-04
(PID.TID 0000.0001) %MON dynstat_eta_min              =  -4.0927288912571E-04
(PID.TID 0000.0001) %MON dynstat_eta_mean             =  -6.2366802267011E-18
(PID.TID 0000.0001) %MON dynstat_eta_sd               =   3.7345201310659E-04
(PID.TID 0000.0001) %MON dynstat_eta_del2             =   3.7965960335131E-06
(PID.TID 0000.0001) %MON dynstat_uvel_max             =   2.1121883439229E-02
(PID.TID 0000.0001) %MON dynstat_uvel_min             =  -2.1208393104515E-02
(PID.TID 0000.0001) %MON dynstat_uvel_mean            =  -9.4608935624319E-07
(PID.TID 0000.0001) %MON dynstat_uvel_sd              =   5.0268720931856E-03
(PID.TID 0000.0001) %MON dynstat_uvel_del2            =   1.3830688310006E-04
(PID.TID 0000.0001) %MON dynstat_vvel_max             =   2.2068165171090E-02
(PID.TID 0000.0001) %MON dynstat_vvel_min             =  -2.2081074787714E-02
(PID.TID 0000.0001) %MON dynstat_vvel_mean            =   2.9839755208167E-10
(PID.TID 0000.0001) %MON dynstat_vvel_sd              =   5.0131588312371E-03
(PID.TID 0000.0001) %MON dynstat_vvel_del2            =   1.7505240367231E-04
(PID.TID 0000.0001) %MON dynstat_wvel_max             =   4.1527149076732E-04
(PID.TID 0000.0001) %MON dynstat_wvel_min             =  -4.1590175695711E-04
(PID.TID 0000.0001) %MON dynstat_wvel_mean            =   1.2976491581392E-21
(PID.TID 0000.0001) %MON dynstat_wvel_sd              =   1.2339771956913E-04
(PID.TID 0000.0001) %MON dynstat_wvel_del2            =   9.4459677975147E-06
(PID.TID 0000.0001) %MON dynstat_theta_max            =   1.7020391872709E+01
(PID.TID 0000.0001) %MON dynstat_theta_min            =   1.6979608188987E+01
(PID.TID 0000.0001) %MON dynstat_theta_mean           =   1.6999999916895E+01
(PID.TID 0000.0001) %MON dynstat_theta_sd             =   1.8683197012045E-02
(PID.TID 0000.0001) %MON dynstat_theta_del2           =   1.9597139760257E-04
(PID.TID 0000.0001) %MON dynstat_salt_max             =   1.7020387109310E+01
(PID.TID 0000.0001) %MON dynstat_salt_min             =   1.6979612982853E+01
(PID.TID 0000.0001) %MON dynstat_salt_mean            =   1.7000000005831E+01
(PID.TID 0000.0001) %MON dynstat_salt_sd              =   1.8685143344066E-02
(PID.TID 0000.0001) %MON dynstat_salt_del2            =   1.8921791428454E-04
(PID.TID 0000.0001) %MON advcfl_uvel_max              =   2.5450071725418E-02
(PID.TID 0000.0001) %MON advcfl_vvel_max              =   2.6497289745257E-02
(PID.TID 0000.0001) %MON advcfl_wvel_max              =   9.9816421669706E-02
(PID.TID 0000.0001) %MON advcfl_W_hf_max              =   9.9816421669706E-02
(PID.TID 0000.0001) %MON pe_b_mean                    =   3.4204136094398E-09
(PID.TID 0000.0001) %MON ke_max                       =   4.6070510853539E-04
(PID.TID 0000.0001) %MON ke_mean                      =   2.4697967472428E-05
(PID.TID 0000.0001) %MON ke_vol                       =   2.5000000000000E+11
(PID.TID 0000.0001) %MON vort_r_min                   =  -5.9797004807068E-06
(PID.TID 0000.0001) %MON vort_r_max                   =   6.6658845753641E-06
(PID.TID 0000.0001) %MON vort_a_mean                  =   7.2899999999999E-05
(PID.TID 0000.0001) %MON vort_a_sd                    =   1.7121400021547E-06
(PID.TID 0000.0001) %MON vort_p_mean                  =   7.7363265306122E-05
(PID.TID 0000.0001) %MON vort_p_sd                    =   3.0972669780666E-05
(PID.TID 0000.0001) %MON surfExpan_theta_mean         =   1.5783951851873E-13
(PID.TID 0000.0001) %MON surfExpan_salt_mean          =   1.1382935620290E-16
(PID.TID 0000.0001) // =======================================================
(PID.TID 0000.0001) // End MONITOR dynamic field statistics
(PID.TID 0000.0001) // =======================================================
 cg2d: Sum(rhs),rhsMax =   3.28483984804451E-14  6.62991854511722E-04
(PID.TID 0000.0001)                    cg2d_init_res =    2.47476344071113E-01
(PID.TID 0000.0001)                       cg2d_iters =    77
(PID.TID 0000.0001)                         cg2d_res =    9.36792579128682E-12
(PID.TID 0000.0001) // =======================================================
(PID.TID 0000.0001) // Begin MONITOR dynamic field statistics
(PID.TID 0000.0001) // =======================================================
(PID.TID 0000.0001) %MON time_tsnumber                =                    20
(PID.TID 0000.0001) %MON time_secondsf                =   2.4000000000000E+04
(PID.TID 0000.0001) %MON dynstat_eta_max              =   4.0576476257507E-04
(PID.TID 0000.0001) %MON dynstat_eta_min              =  -4.0973396990820E-04
(PID.TID 0000.0001) %MON dynstat_eta_mean             =  -2.2041506387849E-17
(PID.TID 0000.0001) %MON dynstat_eta_sd               =   3.7342843425055E-04
(PID.TID 0000.0001) %MON dynstat_eta_del2             =   3.8047307572510E-06
(PID.TID 0000.0001) %MON dynstat_uvel_max             =   2.2580084419712E-02
(PID.TID 0000.0001) %MON dynstat_uvel_min             =  -2.2677520144865E-02
(PID.TID 0000.0001) %MON dynstat_uvel_mean            =  -9.5289630621760E-07
(PID.TID 0000.0001) %MON dynstat_uvel_sd              =   5.4068819593460E-03
(PID.TID 0000.0001) %MON dynstat_uvel_del2            =   1.4828578579659E-04
(PID.TID 0000.0001) %MON dynstat_vvel_max             =   2.1908914900474E-02
(PID.TID 0000.0001) %MON dynstat_vvel_min             =  -2.1923518492395E-02
(PID.TID 0000.0001) %MON dynstat_vvel_mean            =   3.2197864231312E-10
(PID.TID 0000.0001) %MON dynstat_vvel_sd              =   4.9668267197996E-03
(PID.TID 0000.0001) %MON dynstat_vvel_del2            =   1.7523304996368E-04
(PID.TID 0000.0001) %MON dynstat_wvel_max             =   4.1500814661558E-04
(PID.TID 0000.0001) %MON dynstat_wvel_min             =  -4.1581634502152E-04
(PID.TID 0000.0001) %MON dynstat_wvel_mean            =  -9.7552352031248E-22
(PID.TID 0000.0001) %MON dynstat_wvel_sd              =   1.2271870004899E-04
(PID.TID 0000.0001) %MON dynstat_wvel_del2            =   9.4701012449784E-06
(PID.TID 0000.0001) %MON dynstat_theta_max            =   1.7020391872709E+01
(PID.TID 0000.0001) %MON dynstat_theta_min            =   1.6979608188987E+01
(PID.TID 0000.0001) %MON dynstat_theta_mean           =   1.6999999916894E+01
(PID.TID 0000.0001) %MON dynstat_theta_sd             =   1.8683021321594E-02
(PID.TID 0000.0001) %MON dynstat_theta_del2           =   1.9619747612025E-04
(PID.TID 0000.0001) %MON dynstat_salt_max             =   1.7020387109310E+01
(PID.TID 0000.0001) %MON dynstat_salt_min             =   1.6979612982853E+01
(PID.TID 0000.0001) %MON dynstat_salt_mean            =   1.7000000005831E+01
(PID.TID 0000.0001) %MON dynstat_salt_sd              =   1.8685116554886E-02
(PID.TID 0000.0001) %MON dynstat_salt_del2            =   1.8931662486987E-04
(PID.TID 0000.0001) %MON advcfl_uvel_max              =   2.7213024173838E-02
(PID.TID 0000.0001) %MON advcfl_vvel_max              =   2.6308222190874E-02
(PID.TID 0000.0001) %MON advcfl_wvel_max              =   9.9795922805165E-02
(PID.TID 0000.0001) %MON advcfl_W_hf_max              =   9.9795922805165E-02
(PID.TID 0000.0001) %MON pe_b_mean                    =   3.4199817098046E-09
(PID.TID 0000.0001) %MON ke_max                       =   4.8885973206844E-04
(PID.TID 0000.0001) %MON ke_mean                      =   2.6458483194124E-05
(PID.TID 0000.0001) %MON ke_vol                       =   2.5000000000000E+11
(PID.TID 0000.0001) %MON vort_r_min                   =  -6.3777979222237E-06
(PID.TID 0000.0001) %MON vort_r_max                   =   7.1432515797969E-06
(PID.TID 0000.0001) %MON vort_a_mean                  =   7.2900000000000E-05
(PID.TID 0000.0001) %MON vort_a_sd                    =   1.8309424840862E-06
(PID.TID 0000.0001) %MON vort_p_mean                  =   7.7363265306122E-05
(PID.TID 0000.0001) %MON vort_p_sd                    =   3.0979880016888E-05
(PID.TID 0000.0001) %MON surfExpan_theta_mean         =   2.4171218824796E-13
(PID.TID 0000.0001) %MON surfExpan_salt_mean          =   1.1997309330893E-16
(PID.TID 0000.0001) // =======================================================
(PID.TID 0000.0001) // End MONITOR dynamic field statistics
(PID.TID 0000.0001) // =======================================================
 cg2d: Sum(rhs),rhsMax =   8.57262394751701E-14  6.68841682797511E-04
(PID.TID 0000.0001)                    cg2d_init_res =    2.60306732041578E-01
(PID.TID 0000.0001)                       cg2d_iters =    77
(PID.TID 0000.0001)                         cg2d_res =    8.86588213044743E-12
(PID.TID 0000.0001) // =======================================================
(PID.TID 0000.0001) // Begin MONITOR dynamic field statistics
(PID.TID 0000.0001) // =======================================================
(PID.TID 0000.0001) %MON time_tsnumber                =                    21
(PID.TID 0000.0001) %MON time_secondsf                =   2.5200000000000E+04
(PID.TID 0000.0001) %MON dynstat_eta_max              =   4.0525862348077E-04
(PID.TID 0000.0001) %MON dynstat_eta_min              =  -4.1023880184794E-04
(PID.TID 0000.0001) %MON dynstat_eta_mean             =  -2.0145429380780E-17
(PID.TID 0000.0001) %MON dynstat_eta_sd               =   3.7340623307482E-04
(PID.TID 0000.0001) %MON dynstat_eta_del2             =   3.8131879948577E-06
(PID.TID 0000.0001) %MON dynstat_uvel_max             =   2.3992966032320E-02
(PID.TID 0000.0001) %MON dynstat_uvel_min             =  -2.4100888225826E-02
(PID.TID 0000.0001) %MON dynstat_uvel_mean            =  -9.6029703542606E-07
(PID.TID 0000.0001) %MON dynstat_uvel_sd              =   5.7786473724938E-03
(PID.TID 0000.0001) %MON dynstat_uvel_del2            =   1.5799097307577E-04
(PID.TID 0000.0001) %MON dynstat_vvel_max             =   2.1625594424158E-02
(PID.TID 0000.0001) %MON dynstat_vvel_min             =  -2.1641597060386E-02
(PID.TID 0000.0001) %MON dynstat_vvel_mean            =   3.4301970576168E-10
(PID.TID 0000.0001) %MON dynstat_vvel_sd              =   4.8879058686993E-03
(PID.TID 0000.0001) %MON dynstat_vvel_del2            =   1.7456210069510E-04
(PID.TID 0000.0001) %MON dynstat_wvel_max             =   4.1265984758246E-04
(PID.TID 0000.0001) %MON dynstat_wvel_min             =  -4.1366443120250E-04
(PID.TID 0000.0001) %MON dynstat_wvel_mean            =  -2.8825528974555E-21
(PID.TID 0000.0001) %MON dynstat_wvel_sd              =   1.2141564911404E-04
(PID.TID 0000.0001) %MON dynstat_wvel_del2            =   9.4636865289105E-06
(PID.TID 0000.0001) %MON dynstat_theta_max            =   1.7020391872709E+01
(PID.TID 0000.0001) %MON dynstat_theta_min            =   1.6979608188987E+01
(PID.TID 0000.0001) %MON dynstat_theta_mean           =   1.6999999916892E+01
(PID.TID 0000.0001) %MON dynstat_theta_sd             =   1.8682845743969E-02
(PID.TID 0000.0001) %MON dynstat_theta_del2           =   1.9638257435933E-04
(PID.TID 0000.0001) %MON dynstat_salt_max             =   1.7020387109310E+01
(PID.TID 0000.0001) %MON dynstat_salt_min             =   1.6979612982853E+01
(PID.TID 0000.0001) %MON dynstat_salt_mean            =   1.7000000005831E+01
(PID.TID 0000.0001) %MON dynstat_salt_sd              =   1.8685087874109E-02
(PID.TID 0000.0001) %MON dynstat_salt_del2            =   1.8941872395944E-04
(PID.TID 0000.0001) %MON advcfl_uvel_max              =   2.8921065870991E-02
(PID.TID 0000.0001) %MON advcfl_vvel_max              =   2.5969916472463E-02
(PID.TID 0000.0001) %MON advcfl_wvel_max              =   9.9279463488600E-02
(PID.TID 0000.0001) %MON advcfl_W_hf_max              =   9.9279463488600E-02
(PID.TID 0000.0001) %MON pe_b_mean                    =   3.4195750704010E-09
(PID.TID 0000.0001) %MON ke_max                       =   5.1546860204702E-04
(PID.TID 0000.0001) %MON ke_mean                      =   2.8164362603907E-05
(PID.TID 0000.0001) %MON ke_vol                       =   2.5000000000000E+11
(PID.TID 0000.0001) %MON vort_r_min                   =  -6.7586009968535E-06
(PID.TID 0000.0001) %MON vort_r_max                   =   7.6027715361718E-06
(PID.TID 0000.0001) %MON vort_a_mean                  =   7.2899999999999E-05
(PID.TID 0000.0001) %MON vort_a_sd                    =   1.9461416392894E-06
(PID.TID 0000.0001) %MON vort_p_mean                  =   7.7363265306121E-05
(PID.TID 0000.0001) %MON vort_p_sd                    =   3.0987331546552E-05
(PID.TID 0000.0001) %MON surfExpan_theta_mean         =   3.3024313848746E-13
(PID.TID 0000.0001) %MON surfExpan_salt_mean          =   1.2272342558729E-16
(PID.TID 0000.0001) // =======================================================
(PID.TID 0000.0001) // End MONITOR dynamic field statistics
(PID.TID 0000.0001) // =======================================================
 cg2d: Sum(rhs),rhsMax =   1.67312615585030E-13  6.74898298592028E-04
(PID.TID 0000.0001)                    cg2d_init_res =    2.69969365284589E-01
(PID.TID 0000.0001)                       cg2d_iters =    76
(PID.TID 0000.0001)                         cg2d_res =    9.55325566244855E-12
(PID.TID 0000.0001) // =======================================================
(PID.TID 0000.0001) // Begin MONITOR dynamic field statistics
(PID.TID 0000.0001) // =======================================================
(PID.TID 0000.0001) %MON time_tsnumber                =                    22
(PID.TID 0000.0001) %MON time_secondsf                =   2.6400000000000E+04
(PID.TID 0000.0001) %MON dynstat_eta_max              =   4.0471427243057E-04
(PID.TID 0000.0001) %MON dynstat_eta_min              =  -4.1078174227487E-04
(PID.TID 0000.0001) %MON dynstat_eta_mean             =  -1.7708854229692E-17
(PID.TID 0000.0001) %MON dynstat_eta_sd               =   3.7338616830772E-04
(PID.TID 0000.0001) %MON dynstat_eta_del2             =   3.8217957372337E-06
(PID.TID 0000.0001) %MON dynstat_uvel_max             =   2.5351840297928E-02
(PID.TID 0000.0001) %MON dynstat_uvel_min             =  -2.5469567152961E-02
(PID.TID 0000.0001) %MON dynstat_uvel_mean            =  -9.6819299702864E-07
(PID.TID 0000.0001) %MON dynstat_uvel_sd              =   6.1395055358662E-03
(PID.TID 0000.0001) %MON dynstat_uvel_del2            =   1.6735277481200E-04
(PID.TID 0000.0001) %MON dynstat_vvel_max             =   2.1224063399189E-02
(PID.TID 0000.0001) %MON dynstat_vvel_min             =  -2.1241102090568E-02
(PID.TID 0000.0001) %MON dynstat_vvel_mean            =   3.6102509666931E-10
(PID.TID 0000.0001) %MON dynstat_vvel_sd              =   4.7776034179269E-03
(PID.TID 0000.0001) %MON dynstat_vvel_del2            =   1.7308406524730E-04
(PID.TID 0000.0001) %MON dynstat_wvel_max             =   4.0833801832344E-04
(PID.TID 0000.0001) %MON dynstat_wvel_min             =  -4.0954765504966E-04
(PID.TID 0000.0001) %MON dynstat_wvel_mean            =  -5.1458156592932E-21
(PID.TID 0000.0001) %MON dynstat_wvel_sd              =   1.1952797667663E-04
(PID.TID 0000.0001) %MON dynstat_wvel_del2            =   9.4297737460522E-06
(PID.TID 0000.0001) %MON dynstat_theta_max            =   1.7020391872709E+01
(PID.TID 0000.0001) %MON dynstat_theta_min            =   1.6979608188987E+01
(PID.TID 0000.0001) %MON dynstat_theta_mean           =   1.6999999916890E+01
(PID.TID 0000.0001) %MON dynstat_theta_sd             =   1.8682671312194E-02
(PID.TID 0000.0001) %MON dynstat_theta_del2           =   1.9652777178975E-04
(PID.TID 0000.0001) %MON dynstat_salt_max             =   1.7020387109310E+01
(PID.TID 0000.0001) %MON dynstat_salt_min             =   1.6979612982853E+01
(PID.TID 0000.0001) %MON dynstat_salt_mean            =   1.7000000005831E+01
(PID.TID 0000.0001) %MON dynstat_salt_sd              =   1.8685057355086E-02
(PID.TID 0000.0001) %MON dynstat_salt_del2            =   1.8952333705809E-04
(PID.TID 0000.0001) %MON advcfl_uvel_max              =   3.0563480583553E-02
(PID.TID 0000.0001) %MON advcfl_vvel_max              =   2.5489322508682E-02
(PID.TID 0000.0001) %MON advcfl_wvel_max              =   9.8291437211917E-02
(PID.TID 0000.0001) %MON advcfl_W_hf_max              =   9.8291437211917E-02
(PID.TID 0000.0001) %MON pe_b_mean                    =   3.4192075825134E-09
(PID.TID 0000.0001) %MON ke_max                       =   5.4034855265857E-04
(PID.TID 0000.0001) %MON ke_mean                      =   2.9803001902278E-05
(PID.TID 0000.0001) %MON ke_vol                       =   2.5000000000000E+11
(PID.TID 0000.0001) %MON vort_r_min                   =  -7.1198945164718E-06
(PID.TID 0000.0001) %MON vort_r_max                   =   8.0414722536001E-06
(PID.TID 0000.0001) %MON vort_a_mean                  =   7.2900000000001E-05
(PID.TID 0000.0001) %MON vort_a_sd                    =   2.0570248846792E-06
(PID.TID 0000.0001) %MON vort_p_mean                  =   7.7363265306124E-05
(PID.TID 0000.0001) %MON vort_p_sd                    =   3.0994931363618E-05
(PID.TID 0000.0001) %MON surfExpan_theta_mean         =   4.2014447181567E-13
(PID.TID 0000.0001) %MON surfExpan_salt_mean          =   1.2168887203186E-16
(PID.TID 0000.0001) // =======================================================
(PID.TID 0000.0001) // End MONITOR dynamic field statistics
(PID.TID 0000.0001) // =======================================================
 cg2d: Sum(rhs),rhsMax =   1.93984910600020E-13  6.81102721786753E-04
(PID.TID 0000.0001)                    cg2d_init_res =    2.76339403319679E-01
(PID.TID 0000.0001)                       cg2d_iters =    76
(PID.TID 0000.0001)                         cg2d_res =    8.60273340634417E-12
(PID.TID 0000.0001) // =======================================================
(PID.TID 0000.0001) // Begin MONITOR dynamic field statistics
(PID.TID 0000.0001) // =======================================================
(PID.TID 0000.0001) %MON time_tsnumber                =                    23
(PID.TID 0000.0001) %MON time_secondsf                =   2.7600000000000E+04
(PID.TID 0000.0001) %MON dynstat_eta_max              =   4.0413842819715E-04
(PID.TID 0000.0001) %MON dynstat_eta_min              =  -4.1135609262413E-04
(PID.TID 0000.0001) %MON dynstat_eta_mean             =  -1.3874580305773E-17
(PID.TID 0000.0001) %MON dynstat_eta_sd               =   3.7336891105711E-04
(PID.TID 0000.0001) %MON dynstat_eta_del2             =   3.8303891444888E-06
(PID.TID 0000.0001) %MON dynstat_uvel_max             =   2.6648689907185E-02
(PID.TID 0000.0001) %MON dynstat_uvel_min             =  -2.6775304874532E-02
(PID.TID 0000.0001) %MON dynstat_uvel_mean            =  -9.7647067817247E-07
(PID.TID 0000.0001) %MON dynstat_uvel_sd              =   6.4869114796185E-03
(PID.TID 0000.0001) %MON dynstat_uvel_del2            =   1.7631079581519E-04
(PID.TID 0000.0001) %MON dynstat_vvel_max             =   2.0710816011252E-02
(PID.TID 0000.0001) %MON dynstat_vvel_min             =  -2.0728484914296E-02
(PID.TID 0000.0001) %MON dynstat_vvel_mean            =   3.7558742425688E-10
(PID.TID 0000.0001) %MON dynstat_vvel_sd              =   4.6373777725900E-03
(PID.TID 0000.0001) %MON dynstat_vvel_del2            =   1.7085749205015E-04
(PID.TID 0000.0001) %MON dynstat_wvel_max             =   4.0216561553810E-04
(PID.TID 0000.0001) %MON dynstat_wvel_min             =  -4.0357799209012E-04
(PID.TID 0000.0001) %MON dynstat_wvel_mean            =  -3.0560394274434E-21
(PID.TID 0000.0001) %MON dynstat_wvel_sd              =   1.1709891021442E-04
(PID.TID 0000.0001) %MON dynstat_wvel_del2            =   9.3714170081278E-06
(PID.TID 0000.0001) %MON dynstat_theta_max            =   1.7020391872709E+01
(PID.TID 0000.0001) %MON dynstat_theta_min            =   1.6979608188987E+01
(PID.TID 0000.0001) %MON dynstat_theta_mean           =   1.6999999916887E+01
(PID.TID 0000.0001) %MON dynstat_theta_sd             =   1.8682499040110E-02
(PID.TID 0000.0001) %MON dynstat_theta_del2           =   1.9663493455609E-04
(PID.TID 0000.0001) %MON dynstat_salt_max             =   1.7020387109310E+01
(PID.TID 0000.0001) %MON dynstat_salt_min             =   1.6979612982853E+01
(PID.TID 0000.0001) %MON dynstat_salt_mean            =   1.7000000005831E+01
(PID.TID 0000.0001) %MON dynstat_salt_sd              =   1.8685025067048E-02
(PID.TID 0000.0001) %MON dynstat_salt_del2            =   1.8962940484677E-04
(PID.TID 0000.0001) %MON advcfl_uvel_max              =   3.2130365849438E-02
(PID.TID 0000.0001) %MON advcfl_vvel_max              =   2.4874181897155E-02
(PID.TID 0000.0001) %MON advcfl_wvel_max              =   9.6858718101629E-02
(PID.TID 0000.0001) %MON advcfl_W_hf_max              =   9.6858718101629E-02
(PID.TID 0000.0001) %MON pe_b_mean                    =   3.4188915303208E-09
(PID.TID 0000.0001) %MON ke_max                       =   5.6333949305797E-04
(PID.TID 0000.0001) %MON ke_mean                      =   3.1362541599692E-05
(PID.TID 0000.0001) %MON ke_vol                       =   2.5000000000000E+11
(PID.TID 0000.0001) %MON vort_r_min                   =  -7.4597821804888E-06
(PID.TID 0000.0001) %MON vort_r_max                   =   8.4568304517589E-06
(PID.TID 0000.0001) %MON vort_a_mean                  =   7.2900000000000E-05
(PID.TID 0000.0001) %MON vort_a_sd                    =   2.1629343403464E-06
(PID.TID 0000.0001) %MON vort_p_mean                  =   7.7363265306122E-05
(PID.TID 0000.0001) %MON vort_p_sd                    =   3.1002581501343E-05
(PID.TID 0000.0001) %MON surfExpan_theta_mean         =   5.0786589063245E-13
(PID.TID 0000.0001) %MON surfExpan_salt_mean          =   1.1716173625644E-16
(PID.TID 0000.0001) // =======================================================
(PID.TID 0000.0001) // End MONITOR dynamic field statistics
(PID.TID 0000.0001) // =======================================================
 cg2d: Sum(rhs),rhsMax =   1.14633346218196E-13  6.87392324496172E-04
(PID.TID 0000.0001)                    cg2d_init_res =    2.79377148440542E-01
(PID.TID 0000.0001)                       cg2d_iters =    76
(PID.TID 0000.0001)                         cg2d_res =    7.84824034399217E-12
(PID.TID 0000.0001) // =======================================================
(PID.TID 0000.0001) // Begin MONITOR dynamic field statistics
(PID.TID 0000.0001) // =======================================================
(PID.TID 0000.0001) %MON time_tsnumber                =                    24
(PID.TID 0000.0001) %MON time_secondsf                =   2.8800000000000E+04
(PID.TID 0000.0001) %MON dynstat_eta_max              =   4.0353870883255E-04
(PID.TID 0000.0001) %MON dynstat_eta_min              =  -4.1195425738189E-04
(PID.TID 0000.0001) %MON dynstat_eta_mean             =  -2.5010143987481E-17
(PID.TID 0000.0001) %MON dynstat_eta_sd               =   3.7335499655428E-04
(PID.TID 0000.0001) %MON dynstat_eta_del2             =   3.8388155342382E-06
(PID.TID 0000.0001) %MON dynstat_uvel_max             =   2.7876292773013E-02
(PID.TID 0000.0001) %MON dynstat_uvel_min             =  -2.8010550257175E-02
(PID.TID 0000.0001) %MON dynstat_uvel_mean            =  -9.8500747156694E-07
(PID.TID 0000.0001) %MON dynstat_uvel_sd              =   6.8184546545938E-03
(PID.TID 0000.0001) %MON dynstat_uvel_del2            =   1.8480772151855E-04
(PID.TID 0000.0001) %MON dynstat_vvel_max             =   2.0092914758268E-02
(PID.TID 0000.0001) %MON dynstat_vvel_min             =  -2.0110793799561E-02
(PID.TID 0000.0001) %MON dynstat_vvel_mean            =   3.8638704123928E-10
(PID.TID 0000.0001) %MON dynstat_vvel_sd              =   4.4689370886847E-03
(PID.TID 0000.0001) %MON dynstat_vvel_del2            =   1.6795506734502E-04
(PID.TID 0000.0001) %MON dynstat_wvel_max             =   3.9427542743091E-04
(PID.TID 0000.0001) %MON dynstat_wvel_min             =  -3.9587716029980E-04
(PID.TID 0000.0001) %MON dynstat_wvel_mean            =   1.0805845218317E-21
(PID.TID 0000.0001) %MON dynstat_wvel_sd              =   1.1417533979281E-04
(PID.TID 0000.0001) %MON dynstat_wvel_del2            =   9.2917974264727E-06
(PID.TID 0000.0001) %MON dynstat_theta_max            =   1.7020391872709E+01
(PID.TID 0000.0001) %MON dynstat_theta_min            =   1.6979608188987E+01
(PID.TID 0000.0001) %MON dynstat_theta_mean           =   1.6999999916884E+01
(PID.TID 0000.0001) %MON dynstat_theta_sd             =   1.8682329912810E-02
(PID.TID 0000.0001) %MON dynstat_theta_del2           =   1.9670660602530E-04
(PID.TID 0000.0001) %MON dynstat_salt_max             =   1.7020387109310E+01
(PID.TID 0000.0001) %MON dynstat_salt_min             =   1.6979612982853E+01
(PID.TID 0000.0001) %MON dynstat_salt_mean            =   1.7000000005831E+01
(PID.TID 0000.0001) %MON dynstat_salt_sd              =   1.8684991092519E-02
(PID.TID 0000.0001) %MON dynstat_salt_del2            =   1.8973603540288E-04
(PID.TID 0000.0001) %MON advcfl_uvel_max              =   3.3612660308610E-02
(PID.TID 0000.0001) %MON advcfl_vvel_max              =   2.4132952559473E-02
(PID.TID 0000.0001) %MON advcfl_wvel_max              =   9.5010518471951E-02
(PID.TID 0000.0001) %MON advcfl_W_hf_max              =   9.5010518471951E-02
(PID.TID 0000.0001) %MON pe_b_mean                    =   3.4186367084113E-09
(PID.TID 0000.0001) %MON ke_max                       =   5.8430444559278E-04
(PID.TID 0000.0001) %MON ke_mean                      =   3.2831933800754E-05
(PID.TID 0000.0001) %MON ke_vol                       =   2.5000000000000E+11
(PID.TID 0000.0001) %MON vort_r_min                   =  -7.7766693554742E-06
(PID.TID 0000.0001) %MON vort_r_max                   =   8.8467541823475E-06
(PID.TID 0000.0001) %MON vort_a_mean                  =   7.2900000000000E-05
(PID.TID 0000.0001) %MON vort_a_sd                    =   2.2632691875877E-06
(PID.TID 0000.0001) %MON vort_p_mean                  =   7.7363265306122E-05
(PID.TID 0000.0001) %MON vort_p_sd                    =   3.1010181301499E-05
(PID.TID 0000.0001) %MON surfExpan_theta_mean         =   5.8978420726308E-13
(PID.TID 0000.0001) %MON surfExpan_salt_mean          =   1.0892559943097E-16
(PID.TID 0000.0001) // =======================================================
(PID.TID 0000.0001) // End MONITOR dynamic field statistics
(PID.TID 0000.0001) // =======================================================
 cg2d: Sum(rhs),rhsMax =   1.57047985727132E-13  6.93701968113593E-04
(PID.TID 0000.0001)                    cg2d_init_res =    2.79123467265569E-01
(PID.TID 0000.0001)                       cg2d_iters =    76
(PID.TID 0000.0001)                         cg2d_res =    7.55269834138221E-12
(PID.TID 0000.0001) // =======================================================
(PID.TID 0000.0001) // Begin MONITOR dynamic field statistics
(PID.TID 0000.0001) // =======================================================
(PID.TID 0000.0001) %MON time_tsnumber                =                    25
(PID.TID 0000.0001) %MON time_secondsf                =   3.0000000000000E+04
(PID.TID 0000.0001) %MON dynstat_eta_max              =   4.0292344859051E-04
(PID.TID 0000.0001) %MON dynstat_eta_min              =  -4.1256792600895E-04
(PID.TID 0000.0001) %MON dynstat_eta_mean             =  -3.1695135852550E-17
(PID.TID 0000.0001) %MON dynstat_eta_sd               =   3.7334478540784E-04
(PID.TID 0000.0001) %MON dynstat_eta_del2             =   3.8469381265659E-06
(PID.TID 0000.0001) %MON dynstat_uvel_max             =   2.9027735131108E-02
(PID.TID 0000.0001) %MON dynstat_uvel_min             =  -2.9168469661867E-02
(PID.TID 0000.0001) %MON dynstat_uvel_mean            =  -9.9367757310727E-07
(PID.TID 0000.0001) %MON dynstat_uvel_sd              =   7.1318743762229E-03
(PID.TID 0000.0001) %MON dynstat_uvel_del2            =   1.9279004890574E-04
(PID.TID 0000.0001) %MON dynstat_vvel_max             =   1.9377924474108E-02
(PID.TID 0000.0001) %MON dynstat_vvel_min             =  -1.9395607037384E-02
(PID.TID 0000.0001) %MON dynstat_vvel_mean            =   3.9318478687715E-10
(PID.TID 0000.0001) %MON dynstat_vvel_sd              =   4.2742410643585E-03
(PID.TID 0000.0001) %MON dynstat_vvel_del2            =   1.6443599776061E-04
(PID.TID 0000.0001) %MON dynstat_wvel_max             =   3.8480829550695E-04
(PID.TID 0000.0001) %MON dynstat_wvel_min             =  -3.8657593884968E-04
(PID.TID 0000.0001) %MON dynstat_wvel_mean            =   7.0678347808153E-22
(PID.TID 0000.0001) %MON dynstat_wvel_sd              =   1.1080770164011E-04
(PID.TID 0000.0001) %MON dynstat_wvel_del2            =   9.1937973130491E-06
(PID.TID 0000.0001) %MON dynstat_theta_max            =   1.7020391872709E+01
(PID.TID 0000.0001) %MON dynstat_theta_min            =   1.6979608188987E+01
(PID.TID 0000.0001) %MON dynstat_theta_mean           =   1.6999999916880E+01
(PID.TID 0000.0001) %MON dynstat_theta_sd             =   1.8682164877388E-02
(PID.TID 0000.0001) %MON dynstat_theta_del2           =   1.9674588886708E-04
(PID.TID 0000.0001) %MON dynstat_salt_max             =   1.7020387109310E+01
(PID.TID 0000.0001) %MON dynstat_salt_min             =   1.6979612982852E+01
(PID.TID 0000.0001) %MON dynstat_salt_mean            =   1.7000000005831E+01
(PID.TID 0000.0001) %MON dynstat_salt_sd              =   1.8684955525327E-02
(PID.TID 0000.0001) %MON dynstat_salt_del2            =   1.8984223671690E-04
(PID.TID 0000.0001) %MON advcfl_uvel_max              =   3.5002163594241E-02
(PID.TID 0000.0001) %MON advcfl_vvel_max              =   2.3274728444861E-02
(PID.TID 0000.0001) %MON advcfl_wvel_max              =   9.2778225323922E-02
(PID.TID 0000.0001) %MON advcfl_W_hf_max              =   9.2778225323922E-02
(PID.TID 0000.0001) %MON pe_b_mean                    =   3.4184497136048E-09
(PID.TID 0000.0001) %MON ke_max                       =   6.0312922275282E-04
(PID.TID 0000.0001) %MON ke_mean                      =   3.4201002157409E-05
(PID.TID 0000.0001) %MON ke_vol                       =   2.5000000000000E+11
(PID.TID 0000.0001) %MON vort_r_min                   =  -8.0692450774077E-06
(PID.TID 0000.0001) %MON vort_r_max                   =   9.2095581661850E-06
(PID.TID 0000.0001) %MON vort_a_mean                  =   7.2900000000000E-05
(PID.TID 0000.0001) %MON vort_a_sd                    =   2.3574877156239E-06
(PID.TID 0000.0001) %MON vort_p_mean                  =   7.7363265306122E-05
(PID.TID 0000.0001) %MON vort_p_sd                    =   3.1017629694841E-05
(PID.TID 0000.0001) %MON surfExpan_theta_mean         =   6.6240213533739E-13
(PID.TID 0000.0001) %MON surfExpan_salt_mean          =   9.7030009445592E-17
(PID.TID 0000.0001) // =======================================================
(PID.TID 0000.0001) // End MONITOR dynamic field statistics
(PID.TID 0000.0001) // =======================================================
 cg2d: Sum(rhs),rhsMax =   1.44693935652529E-13  6.99966115053460E-04
(PID.TID 0000.0001)                    cg2d_init_res =    2.75693726395697E-01
(PID.TID 0000.0001)                       cg2d_iters =    76
(PID.TID 0000.0001)                         cg2d_res =    7.84923912331465E-12
(PID.TID 0000.0001) // =======================================================
(PID.TID 0000.0001) // Begin MONITOR dynamic field statistics
(PID.TID 0000.0001) // =======================================================
(PID.TID 0000.0001) %MON time_tsnumber                =                    26
(PID.TID 0000.0001) %MON time_secondsf                =   3.1200000000000E+04
(PID.TID 0000.0001) %MON dynstat_eta_max              =   4.0230149723060E-04
(PID.TID 0000.0001) %MON dynstat_eta_min              =  -4.1318827252734E-04
(PID.TID 0000.0001) %MON dynstat_eta_mean             =  -2.3489164624468E-17
(PID.TID 0000.0001) %MON dynstat_eta_sd               =   3.7333843776001E-04
(PID.TID 0000.0001) %MON dynstat_eta_del2             =   3.8546385678193E-06
(PID.TID 0000.0001) %MON dynstat_uvel_max             =   3.0096989330503E-02
(PID.TID 0000.0001) %MON dynstat_uvel_min             =  -3.0242959491713E-02
(PID.TID 0000.0001) %MON dynstat_uvel_mean            =  -1.0023574016662E-06
(PID.TID 0000.0001) %MON dynstat_uvel_sd              =   7.4250740380652E-03
(PID.TID 0000.0001) %MON dynstat_uvel_del2            =   2.0021566996881E-04
(PID.TID 0000.0001) %MON dynstat_vvel_max             =   1.8573847164896E-02
(PID.TID 0000.0001) %MON dynstat_vvel_min             =  -1.8590965718765E-02
(PID.TID 0000.0001) %MON dynstat_vvel_mean            =   3.9581068717969E-10
(PID.TID 0000.0001) %MON dynstat_vvel_sd              =   4.0555084948400E-03
(PID.TID 0000.0001) %MON dynstat_vvel_del2            =   1.6036958596311E-04
(PID.TID 0000.0001) %MON dynstat_wvel_max             =   3.7391134563343E-04
(PID.TID 0000.0001) %MON dynstat_wvel_min             =  -3.7581329382565E-04
(PID.TID 0000.0001) %MON dynstat_wvel_mean            =  -2.9435361411959E-22
(PID.TID 0000.0001) %MON dynstat_wvel_sd              =   1.0704991011138E-04
(PID.TID 0000.0001) %MON dynstat_wvel_del2            =   9.0807588512748E-06
(PID.TID 0000.0001) %MON dynstat_theta_max            =   1.7020391872709E+01
(PID.TID 0000.0001) %MON dynstat_theta_min            =   1.6979608188987E+01
(PID.TID 0000.0001) %MON dynstat_theta_mean           =   1.6999999916876E+01
(PID.TID 0000.0001) %MON dynstat_theta_sd             =   1.8682004834512E-02
(PID.TID 0000.0001) %MON dynstat_theta_del2           =   1.9675632273106E-04
(PID.TID 0000.0001) %MON dynstat_salt_max             =   1.7020387109310E+01
(PID.TID 0000.0001) %MON dynstat_salt_min             =   1.6979612982852E+01
(PID.TID 0000.0001) %MON dynstat_salt_mean            =   1.7000000005831E+01
(PID.TID 0000.0001) %MON dynstat_salt_sd              =   1.8684918476066E-02
(PID.TID 0000.0001) %MON dynstat_salt_del2            =   1.8994723369852E-04
(PID.TID 0000.0001) %MON advcfl_uvel_max              =   3.6291551390056E-02
(PID.TID 0000.0001) %MON advcfl_vvel_max              =   2.2309158862518E-02
(PID.TID 0000.0001) %MON advcfl_wvel_max              =   9.0195190518157E-02
(PID.TID 0000.0001) %MON advcfl_W_hf_max              =   9.0195190518156E-02
(PID.TID 0000.0001) %MON pe_b_mean                    =   3.4183334729003E-09
(PID.TID 0000.0001) %MON ke_max                       =   6.1972181062534E-04
(PID.TID 0000.0001) %MON ke_mean                      =   3.5460494330560E-05
(PID.TID 0000.0001) %MON ke_vol                       =   2.5000000000000E+11
(PID.TID 0000.0001) %MON vort_r_min                   =  -8.3364643390753E-06
(PID.TID 0000.0001) %MON vort_r_max                   =   9.5439347569427E-06
(PID.TID 0000.0001) %MON vort_a_mean                  =   7.2900000000000E-05
(PID.TID 0000.0001) %MON vort_a_sd                    =   2.4451090523602E-06
(PID.TID 0000.0001) %MON vort_p_mean                  =   7.7363265306123E-05
(PID.TID 0000.0001) %MON vort_p_sd                    =   3.1024827434994E-05
(PID.TID 0000.0001) %MON surfExpan_theta_mean         =   7.2254080781031E-13
(PID.TID 0000.0001) %MON surfExpan_salt_mean          =   8.0789830819038E-17
(PID.TID 0000.0001) // =======================================================
(PID.TID 0000.0001) // End MONITOR dynamic field statistics
(PID.TID 0000.0001) // =======================================================
 cg2d: Sum(rhs),rhsMax =   1.06512563526062E-13  7.06148228175637E-04
(PID.TID 0000.0001)                    cg2d_init_res =    2.69259885131493E-01
(PID.TID 0000.0001)                       cg2d_iters =    76
(PID.TID 0000.0001)                         cg2d_res =    8.78054898274041E-12
(PID.TID 0000.0001) // =======================================================
(PID.TID 0000.0001) // Begin MONITOR dynamic field statistics
(PID.TID 0000.0001) // =======================================================
(PID.TID 0000.0001) %MON time_tsnumber                =                    27
(PID.TID 0000.0001) %MON time_secondsf                =   3.2400000000000E+04
(PID.TID 0000.0001) %MON dynstat_eta_max              =   4.0168200713233E-04
(PID.TID 0000.0001) %MON dynstat_eta_min              =  -4.1380616744021E-04
(PID.TID 0000.0001) %MON dynstat_eta_mean             =  -2.6321074565461E-17
(PID.TID 0000.0001) %MON dynstat_eta_sd               =   3.7333590232211E-04
(PID.TID 0000.0001) %MON dynstat_eta_del2             =   3.8618183571711E-06
(PID.TID 0000.0001) %MON dynstat_uvel_max             =   3.1078724827566E-02
(PID.TID 0000.0001) %MON dynstat_uvel_min             =  -3.1228653630310E-02
(PID.TID 0000.0001) %MON dynstat_uvel_mean            =  -1.0109301555567E-06
(PID.TID 0000.0001) %MON dynstat_uvel_sd              =   7.6961340199282E-03
(PID.TID 0000.0001) %MON dynstat_uvel_del2            =   2.0704234753373E-04
(PID.TID 0000.0001) %MON dynstat_vvel_max             =   1.7689058130175E-02
(PID.TID 0000.0001) %MON dynstat_vvel_min             =  -1.7705304210074E-02
(PID.TID 0000.0001) %MON dynstat_vvel_mean            =   3.9415417632701E-10
(PID.TID 0000.0001) %MON dynstat_vvel_sd              =   3.8152345118883E-03
(PID.TID 0000.0001) %MON dynstat_vvel_del2            =   1.5584262584809E-04
(PID.TID 0000.0001) %MON dynstat_wvel_max             =   3.6173621493158E-04
(PID.TID 0000.0001) %MON dynstat_wvel_min             =  -3.6373522793215E-04
(PID.TID 0000.0001) %MON dynstat_wvel_mean            =   3.0881893365107E-21
(PID.TID 0000.0001) %MON dynstat_wvel_sd              =   1.0295934830139E-04
(PID.TID 0000.0001) %MON dynstat_wvel_del2            =   8.9564168302161E-06
(PID.TID 0000.0001) %MON dynstat_theta_max            =   1.7020391872709E+01
(PID.TID 0000.0001) %MON dynstat_theta_min            =   1.6979608188987E+01
(PID.TID 0000.0001) %MON dynstat_theta_mean           =   1.6999999916872E+01
(PID.TID 0000.0001) %MON dynstat_theta_sd             =   1.8681850635260E-02
(PID.TID 0000.0001) %MON dynstat_theta_del2           =   1.9674176144097E-04
(PID.TID 0000.0001) %MON dynstat_salt_max             =   1.7020387109310E+01
(PID.TID 0000.0001) %MON dynstat_salt_min             =   1.6979612982852E+01
(PID.TID 0000.0001) %MON dynstat_salt_mean            =   1.7000000005831E+01
(PID.TID 0000.0001) %MON dynstat_salt_sd              =   1.8684880063394E-02
(PID.TID 0000.0001) %MON dynstat_salt_del2            =   1.9005058064432E-04
(PID.TID 0000.0001) %MON advcfl_uvel_max              =   3.7474384356372E-02
(PID.TID 0000.0001) %MON advcfl_vvel_max              =   2.1246365052089E-02
(PID.TID 0000.0001) %MON advcfl_wvel_max              =   8.7296454703716E-02
(PID.TID 0000.0001) %MON advcfl_W_hf_max              =   8.7296454703716E-02
(PID.TID 0000.0001) %MON pe_b_mean                    =   3.4182870434844E-09
(PID.TID 0000.0001) %MON ke_max                       =   6.3401150709791E-04
(PID.TID 0000.0001) %MON ke_mean                      =   3.6602126840077E-05
(PID.TID 0000.0001) %MON ke_vol                       =   2.5000000000000E+11
(PID.TID 0000.0001) %MON vort_r_min                   =  -8.5775310780807E-06
(PID.TID 0000.0001) %MON vort_r_max                   =   9.8489225261917E-06
(PID.TID 0000.0001) %MON vort_a_mean                  =   7.2899999999999E-05
(PID.TID 0000.0001) %MON vort_a_sd                    =   2.5257145618590E-06
(PID.TID 0000.0001) %MON vort_p_mean                  =   7.7363265306122E-05
(PID.TID 0000.0001) %MON vort_p_sd                    =   3.1031679231053E-05
(PID.TID 0000.0001) %MON surfExpan_theta_mean         =   7.6750883677356E-13
(PID.TID 0000.0001) %MON surfExpan_salt_mean          =   6.2341825063568E-17
(PID.TID 0000.0001) // =======================================================
(PID.TID 0000.0001) // End MONITOR dynamic field statistics
(PID.TID 0000.0001) // =======================================================
 cg2d: Sum(rhs),rhsMax =   9.82787527574469E-14  7.12172414114275E-04
(PID.TID 0000.0001)                    cg2d_init_res =    2.60068911102510E-01
(PID.TID 0000.0001)                       cg2d_iters =    77
(PID.TID 0000.0001)                         cg2d_res =    8.18241216325304E-12
(PID.TID 0000.0001) // =======================================================
(PID.TID 0000.0001) // Begin MONITOR dynamic field statistics
(PID.TID 0000.0001) // =======================================================
(PID.TID 0000.0001) %MON time_tsnumber                =                    28
(PID.TID 0000.0001) %MON time_secondsf                =   3.3600000000000E+04
(PID.TID 0000.0001) %MON dynstat_eta_max              =   4.0107421361570E-04
(PID.TID 0000.0001) %MON dynstat_eta_min              =  -4.1441239663913E-04
(PID.TID 0000.0001) %MON dynstat_eta_mean             =  -4.1202696431930E-17
(PID.TID 0000.0001) %MON dynstat_eta_sd               =   3.7333692088040E-04
(PID.TID 0000.0001) %MON dynstat_eta_del2             =   3.8683993491263E-06
(PID.TID 0000.0001) %MON dynstat_uvel_max             =   3.1968316795414E-02
(PID.TID 0000.0001) %MON dynstat_uvel_min             =  -3.2120928109891E-02
(PID.TID 0000.0001) %MON dynstat_uvel_mean            =  -1.0192892716451E-06
(PID.TID 0000.0001) %MON dynstat_uvel_sd              =   7.9433232247137E-03
(PID.TID 0000.0001) %MON dynstat_uvel_del2            =   2.1323609823922E-04
(PID.TID 0000.0001) %MON dynstat_vvel_max             =   1.6732243275818E-02
(PID.TID 0000.0001) %MON dynstat_vvel_min             =  -1.6747382409393E-02
(PID.TID 0000.0001) %MON dynstat_vvel_mean            =   3.8815676824190E-10
(PID.TID 0000.0001) %MON dynstat_vvel_sd              =   3.5562239437851E-03
(PID.TID 0000.0001) %MON dynstat_vvel_del2            =   1.5099204104878E-04
(PID.TID 0000.0001) %MON dynstat_wvel_max             =   3.4843738457710E-04
(PID.TID 0000.0001) %MON dynstat_wvel_min             =  -3.5049334195114E-04
(PID.TID 0000.0001) %MON dynstat_wvel_mean            =   2.0972549172388E-21
(PID.TID 0000.0001) %MON dynstat_wvel_sd              =   9.8596926599185E-05
(PID.TID 0000.0001) %MON dynstat_wvel_del2            =   8.8233425091302E-06
(PID.TID 0000.0001) %MON dynstat_theta_max            =   1.7020391872708E+01
(PID.TID 0000.0001) %MON dynstat_theta_min            =   1.6979608188987E+01
(PID.TID 0000.0001) %MON dynstat_theta_mean           =   1.6999999916867E+01
(PID.TID 0000.0001) %MON dynstat_theta_sd             =   1.8681703062828E-02
(PID.TID 0000.0001) %MON dynstat_theta_del2           =   1.9670625624041E-04
(PID.TID 0000.0001) %MON dynstat_salt_max             =   1.7020387109310E+01
(PID.TID 0000.0001) %MON dynstat_salt_min             =   1.6979612982852E+01
(PID.TID 0000.0001) %MON dynstat_salt_mean            =   1.7000000005831E+01
(PID.TID 0000.0001) %MON dynstat_salt_sd              =   1.8684840418742E-02
(PID.TID 0000.0001) %MON dynstat_salt_del2            =   1.9015126274896E-04
(PID.TID 0000.0001) %MON advcfl_uvel_max              =   3.8545113731869E-02
(PID.TID 0000.0001) %MON advcfl_vvel_max              =   2.0096858891271E-02
(PID.TID 0000.0001) %MON advcfl_wvel_max              =   8.4118402068273E-02
(PID.TID 0000.0001) %MON advcfl_W_hf_max              =   8.4118402068273E-02
(PID.TID 0000.0001) %MON pe_b_mean                    =   3.4183056954776E-09
(PID.TID 0000.0001) %MON ke_max                       =   6.4594790330263E-04
(PID.TID 0000.0001) %MON ke_mean                      =   3.7618622240021E-05
(PID.TID 0000.0001) %MON ke_vol                       =   2.5000000000000E+11
(PID.TID 0000.0001) %MON vort_r_min                   =  -8.7918821168398E-06
(PID.TID 0000.0001) %MON vort_r_max                   =   1.0123874160245E-05
(PID.TID 0000.0001) %MON vort_a_mean                  =   7.2900000000001E-05
(PID.TID 0000.0001) %MON vort_a_sd                    =   2.5989488803237E-06
(PID.TID 0000.0001) %MON vort_p_mean                  =   7.7363265306123E-05
(PID.TID 0000.0001) %MON vort_p_sd                    =   3.1038095727981E-05
(PID.TID 0000.0001) %MON surfExpan_theta_mean         =   7.9523838671583E-13
(PID.TID 0000.0001) %MON surfExpan_salt_mean          =   4.1227121220108E-17
(PID.TID 0000.0001) // =======================================================
(PID.TID 0000.0001) // End MONITOR dynamic field statistics
(PID.TID 0000.0001) // =======================================================
 cg2d: Sum(rhs),rhsMax =   3.78930068746508E-13  7.17983278681218E-04
(PID.TID 0000.0001)                    cg2d_init_res =    2.48409267802169E-01
(PID.TID 0000.0001)                       cg2d_iters =    77
(PID.TID 0000.0001)                         cg2d_res =    9.31140081588958E-12
(PID.TID 0000.0001) // =======================================================
(PID.TID 0000.0001) // Begin MONITOR dynamic field statistics
(PID.TID 0000.0001) // =======================================================
(PID.TID 0000.0001) %MON time_tsnumber                =                    29
(PID.TID 0000.0001) %MON time_secondsf                =   3.4800000000000E+04
(PID.TID 0000.0001) %MON dynstat_eta_max              =   4.0048721391156E-04
(PID.TID 0000.0001) %MON dynstat_eta_min              =  -4.1499788191409E-04
(PID.TID 0000.0001) %MON dynstat_eta_mean             =  -4.0030656017209E-17
(PID.TID 0000.0001) %MON dynstat_eta_sd               =   3.7334104701099E-04
(PID.TID 0000.0001) %MON dynstat_eta_del2             =   3.8743235633492E-06
(PID.TID 0000.0001) %MON dynstat_uvel_max             =   3.2761852710344E-02
(PID.TID 0000.0001) %MON dynstat_uvel_min             =  -3.2915903013708E-02
(PID.TID 0000.0001) %MON dynstat_uvel_mean            =  -1.0273407198801E-06
(PID.TID 0000.0001) %MON dynstat_uvel_sd              =   8.1651091910143E-03
(PID.TID 0000.0001) %MON dynstat_uvel_del2            =   2.1877193917365E-04
(PID.TID 0000.0001) %MON dynstat_vvel_max             =   1.5712337480443E-02
(PID.TID 0000.0001) %MON dynstat_vvel_min             =  -1.5726218195926E-02
(PID.TID 0000.0001) %MON dynstat_vvel_mean            =   3.7781638549098E-10
(PID.TID 0000.0001) %MON dynstat_vvel_sd              =   3.2816516801977E-03
(PID.TID 0000.0001) %MON dynstat_vvel_del2            =   1.4611766906703E-04
(PID.TID 0000.0001) %MON dynstat_wvel_max             =   3.3417059859093E-04
(PID.TID 0000.0001) %MON dynstat_wvel_min             =  -3.3624323583478E-04
(PID.TID 0000.0001) %MON dynstat_wvel_mean            =   4.1550638556825E-22
(PID.TID 0000.0001) %MON dynstat_wvel_sd              =   9.4027220508686E-05
(PID.TID 0000.0001) %MON dynstat_wvel_del2            =   8.6842834849348E-06
(PID.TID 0000.0001) %MON dynstat_theta_max            =   1.7020391872707E+01
(PID.TID 0000.0001) %MON dynstat_theta_min            =   1.6979608188987E+01
(PID.TID 0000.0001) %MON dynstat_theta_mean           =   1.6999999916863E+01
(PID.TID 0000.0001) %MON dynstat_theta_sd             =   1.8681562804998E-02
(PID.TID 0000.0001) %MON dynstat_theta_del2           =   1.9665389704794E-04
(PID.TID 0000.0001) %MON dynstat_salt_max             =   1.7020387109310E+01
(PID.TID 0000.0001) %MON dynstat_salt_min             =   1.6979612982852E+01
(PID.TID 0000.0001) %MON dynstat_salt_mean            =   1.7000000005831E+01
(PID.TID 0000.0001) %MON dynstat_salt_sd              =   1.8684799686385E-02
(PID.TID 0000.0001) %MON dynstat_salt_del2            =   1.9024828984214E-04
(PID.TID 0000.0001) %MON advcfl_uvel_max              =   3.9499083616449E-02
(PID.TID 0000.0001) %MON advcfl_vvel_max              =   1.8871461835111E-02
(PID.TID 0000.0001) %MON advcfl_wvel_max              =   8.0698376600348E-02
(PID.TID 0000.0001) %MON advcfl_W_hf_max              =   8.0698376600348E-02
(PID.TID 0000.0001) %MON pe_b_mean                    =   3.4183812543245E-09
(PID.TID 0000.0001) %MON ke_max                       =   6.5549973446194E-04
(PID.TID 0000.0001) %MON ke_mean                      =   3.8503738698377E-05
(PID.TID 0000.0001) %MON ke_vol                       =   2.5000000000000E+11
(PID.TID 0000.0001) %MON vort_r_min                   =  -8.9791720970670E-06
(PID.TID 0000.0001) %MON vort_r_max                   =   1.0368425004598E-05
(PID.TID 0000.0001) %MON vort_a_mean                  =   7.2900000000000E-05
(PID.TID 0000.0001) %MON vort_a_sd                    =   2.6645205636592E-06
(PID.TID 0000.0001) %MON vort_p_mean                  =   7.7363265306122E-05
(PID.TID 0000.0001) %MON vort_p_sd                    =   3.1043995289585E-05
(PID.TID 0000.0001) %MON surfExpan_theta_mean         =   8.0437125759155E-13
(PID.TID 0000.0001) %MON surfExpan_salt_mean          =   1.7679484145289E-17
(PID.TID 0000.0001) // =======================================================
(PID.TID 0000.0001) // End MONITOR dynamic field statistics
(PID.TID 0000.0001) // =======================================================
 cg2d: Sum(rhs),rhsMax =   2.30114267484732E-13  7.23542484305429E-04
(PID.TID 0000.0001)                    cg2d_init_res =    2.34603305181185E-01
(PID.TID 0000.0001)                       cg2d_iters =    78
(PID.TID 0000.0001)                         cg2d_res =    6.95291067455056E-12
(PID.TID 0000.0001) // =======================================================
(PID.TID 0000.0001) // Begin MONITOR dynamic field statistics
(PID.TID 0000.0001) // =======================================================
(PID.TID 0000.0001) %MON time_tsnumber                =                    30
(PID.TID 0000.0001) %MON time_secondsf                =   3.6000000000000E+04
(PID.TID 0000.0001) %MON dynstat_eta_max              =   3.9992975027022E-04
(PID.TID 0000.0001) %MON dynstat_eta_min              =  -4.1555389751162E-04
(PID.TID 0000.0001) %MON dynstat_eta_mean             =  -5.0825235710650E-17
(PID.TID 0000.0001) %MON dynstat_eta_sd               =   3.7334767721842E-04
(PID.TID 0000.0001) %MON dynstat_eta_del2             =   3.8795521737871E-06
(PID.TID 0000.0001) %MON dynstat_uvel_max             =   3.3456136029790E-02
(PID.TID 0000.0001) %MON dynstat_uvel_min             =  -3.3610439525008E-02
(PID.TID 0000.0001) %MON dynstat_uvel_mean            =  -1.0350042146986E-06
(PID.TID 0000.0001) %MON dynstat_uvel_sd              =   8.3601667424466E-03
(PID.TID 0000.0001) %MON dynstat_uvel_del2            =   2.2363140358105E-04
(PID.TID 0000.0001) %MON dynstat_vvel_max             =   1.4638464021653E-02
(PID.TID 0000.0001) %MON dynstat_vvel_min             =  -1.4651020316814E-02
(PID.TID 0000.0001) %MON dynstat_vvel_mean            =   3.6319070564290E-10
(PID.TID 0000.0001) %MON dynstat_vvel_sd              =   2.9951688498408E-03
(PID.TID 0000.0001) %MON dynstat_vvel_del2            =   1.4142052800217E-04
(PID.TID 0000.0001) %MON dynstat_wvel_max             =   3.1909136885263E-04
(PID.TID 0000.0001) %MON dynstat_wvel_min             =  -3.2114273124729E-04
(PID.TID 0000.0001) %MON dynstat_wvel_mean            =  -2.7792996198082E-21
(PID.TID 0000.0001) %MON dynstat_wvel_sd              =   8.9318682563103E-05
(PID.TID 0000.0001) %MON dynstat_wvel_del2            =   8.5428548823011E-06
(PID.TID 0000.0001) %MON dynstat_theta_max            =   1.7020391872706E+01
(PID.TID 0000.0001) %MON dynstat_theta_min            =   1.6979608188987E+01
(PID.TID 0000.0001) %MON dynstat_theta_mean           =   1.6999999916858E+01
(PID.TID 0000.0001) %MON dynstat_theta_sd             =   1.8681430523634E-02
(PID.TID 0000.0001) %MON dynstat_theta_del2           =   1.9658878066058E-04
(PID.TID 0000.0001) %MON dynstat_salt_max             =   1.7020387109310E+01
(PID.TID 0000.0001) %MON dynstat_salt_min             =   1.6979612982852E+01
(PID.TID 0000.0001) %MON dynstat_salt_mean            =   1.7000000005832E+01
(PID.TID 0000.0001) %MON dynstat_salt_sd              =   1.8684758011473E-02
(PID.TID 0000.0001) %MON dynstat_salt_del2            =   1.9034064490014E-04
(PID.TID 0000.0001) %MON advcfl_uvel_max              =   4.0332527430010E-02
(PID.TID 0000.0001) %MON advcfl_vvel_max              =   1.7581224380177E-02
(PID.TID 0000.0001) %MON advcfl_wvel_max              =   7.7074255499349E-02
(PID.TID 0000.0001) %MON advcfl_W_hf_max              =   7.7074255499349E-02
(PID.TID 0000.0001) %MON pe_b_mean                    =   3.4185026702697E-09
(PID.TID 0000.0001) %MON ke_max                       =   6.6265368606878E-04
(PID.TID 0000.0001) %MON ke_mean                      =   3.9252292007119E-05
(PID.TID 0000.0001) %MON ke_vol                       =   2.5000000000000E+11
(PID.TID 0000.0001) %MON vort_r_min                   =  -9.1392593523720E-06
(PID.TID 0000.0001) %MON vort_r_max                   =   1.0582463290029E-05
(PID.TID 0000.0001) %MON vort_a_mean                  =   7.2900000000000E-05
(PID.TID 0000.0001) %MON vort_a_sd                    =   2.7222023279304E-06
(PID.TID 0000.0001) %MON vort_p_mean                  =   7.7363265306122E-05
(PID.TID 0000.0001) %MON vort_p_sd                    =   3.1049305546045E-05
(PID.TID 0000.0001) %MON surfExpan_theta_mean         =   7.9430427862445E-13
(PID.TID 0000.0001) %MON surfExpan_salt_mean          =  -7.0220348110690E-18
(PID.TID 0000.0001) // =======================================================
(PID.TID 0000.0001) // End MONITOR dynamic field statistics
(PID.TID 0000.0001) // =======================================================
 cg2d: Sum(rhs),rhsMax =   2.54534078276275E-13  7.28823765680228E-04
(PID.TID 0000.0001)                    cg2d_init_res =    2.18997227927664E-01
(PID.TID 0000.0001)                       cg2d_iters =    78
(PID.TID 0000.0001)                         cg2d_res =    7.12445234251888E-12
(PID.TID 0000.0001) // =======================================================
(PID.TID 0000.0001) // Begin MONITOR dynamic field statistics
(PID.TID 0000.0001) // =======================================================
(PID.TID 0000.0001) %MON time_tsnumber                =                    31
(PID.TID 0000.0001) %MON time_secondsf                =   3.7200000000000E+04
(PID.TID 0000.0001) %MON dynstat_eta_max              =   3.9941000275504E-04
(PID.TID 0000.0001) %MON dynstat_eta_min              =  -4.1607227711753E-04
(PID.TID 0000.0001) %MON dynstat_eta_mean             =  -4.4876500147617E-17
(PID.TID 0000.0001) %MON dynstat_eta_sd               =   3.7335609386570E-04
(PID.TID 0000.0001) %MON dynstat_eta_del2             =   3.8840646197071E-06
(PID.TID 0000.0001) %MON dynstat_uvel_max             =   3.4048687455387E-02
(PID.TID 0000.0001) %MON dynstat_uvel_min             =  -3.4202136934648E-02
(PID.TID 0000.0001) %MON dynstat_uvel_mean            =  -1.0422134969611E-06
(PID.TID 0000.0001) %MON dynstat_uvel_sd              =   8.5273851497112E-03
(PID.TID 0000.0001) %MON dynstat_uvel_del2            =   2.2780230726969E-04
(PID.TID 0000.0001) %MON dynstat_vvel_max             =   1.3519874868629E-02
(PID.TID 0000.0001) %MON dynstat_vvel_min             =  -1.3531124345842E-02
(PID.TID 0000.0001) %MON dynstat_vvel_mean            =   3.4435656866791E-10
(PID.TID 0000.0001) %MON dynstat_vvel_sd              =   2.7010881299169E-03
(PID.TID 0000.0001) %MON dynstat_vvel_del2            =   1.3684237178031E-04
(PID.TID 0000.0001) %MON dynstat_wvel_max             =   3.0335357667862E-04
(PID.TID 0000.0001) %MON dynstat_wvel_min             =  -3.0536729426005E-04
(PID.TID 0000.0001) %MON dynstat_wvel_mean            =   2.5819329566554E-21
(PID.TID 0000.0001) %MON dynstat_wvel_sd              =   8.4543913876734E-05
(PID.TID 0000.0001) %MON dynstat_wvel_del2            =   8.4025594905740E-06
(PID.TID 0000.0001) %MON dynstat_theta_max            =   1.7020391872705E+01
(PID.TID 0000.0001) %MON dynstat_theta_min            =   1.6979608188987E+01
(PID.TID 0000.0001) %MON dynstat_theta_mean           =   1.6999999916854E+01
(PID.TID 0000.0001) %MON dynstat_theta_sd             =   1.8681306822392E-02
(PID.TID 0000.0001) %MON dynstat_theta_del2           =   1.9651490022776E-04
(PID.TID 0000.0001) %MON dynstat_salt_max             =   1.7020387109310E+01
(PID.TID 0000.0001) %MON dynstat_salt_min             =   1.6979612982852E+01
(PID.TID 0000.0001) %MON dynstat_salt_mean            =   1.7000000005831E+01
(PID.TID 0000.0001) %MON dynstat_salt_sd              =   1.8684715560790E-02
(PID.TID 0000.0001) %MON dynstat_salt_del2            =   1.9042745774803E-04
(PID.TID 0000.0001) %MON advcfl_uvel_max              =   4.1042564321578E-02
(PID.TID 0000.0001) %MON advcfl_vvel_max              =   1.6237349215011E-02
(PID.TID 0000.0001) %MON advcfl_wvel_max              =   7.3288150622412E-02
(PID.TID 0000.0001) %MON advcfl_W_hf_max              =   7.3288150622412E-02
(PID.TID 0000.0001) %MON pe_b_mean                    =   3.4186568035737E-09
(PID.TID 0000.0001) %MON ke_max                       =   6.6741320869342E-04
(PID.TID 0000.0001) %MON ke_mean                      =   3.9860170289940E-05
(PID.TID 0000.0001) %MON ke_vol                       =   2.5000000000000E+11
(PID.TID 0000.0001) %MON vort_r_min                   =  -9.2721923996572E-06
(PID.TID 0000.0001) %MON vort_r_max                   =   1.0766102018128E-05
(PID.TID 0000.0001) %MON vort_a_mean                  =   7.2900000000000E-05
(PID.TID 0000.0001) %MON vort_a_sd                    =   2.7718308783255E-06
(PID.TID 0000.0001) %MON vort_p_mean                  =   7.7363265306123E-05
(PID.TID 0000.0001) %MON vort_p_sd                    =   3.1053964676441E-05
(PID.TID 0000.0001) %MON surfExpan_theta_mean         =   7.6522388507404E-13
(PID.TID 0000.0001) %MON surfExpan_salt_mean          =  -3.2235230446993E-17
(PID.TID 0000.0001) // =======================================================
(PID.TID 0000.0001) // End MONITOR dynamic field statistics
(PID.TID 0000.0001) // =======================================================
 cg2d: Sum(rhs),rhsMax =   3.78047799228648E-13  7.33815390178270E-04
(PID.TID 0000.0001)                    cg2d_init_res =    2.01944669172083E-01
(PID.TID 0000.0001)                       cg2d_iters =    78
(PID.TID 0000.0001)                         cg2d_res =    7.17188010926198E-12
(PID.TID 0000.0001) // =======================================================
(PID.TID 0000.0001) // Begin MONITOR dynamic field statistics
(PID.TID 0000.0001) // =======================================================
(PID.TID 0000.0001) %MON time_tsnumber                =                    32
(PID.TID 0000.0001) %MON time_secondsf                =   3.8400000000000E+04
(PID.TID 0000.0001) %MON dynstat_eta_max              =   3.9893539748834E-04
(PID.TID 0000.0001) %MON dynstat_eta_min              =  -4.1654560596465E-04
(PID.TID 0000.0001) %MON dynstat_eta_mean             =  -5.1919227258002E-17
(PID.TID 0000.0001) %MON dynstat_eta_sd               =   3.7336551293524E-04
(PID.TID 0000.0001) %MON dynstat_eta_del2             =   3.8878572601426E-06
(PID.TID 0000.0001) %MON dynstat_uvel_max             =   3.4537743266604E-02
(PID.TID 0000.0001) %MON dynstat_uvel_min             =  -3.4689325128682E-02
(PID.TID 0000.0001) %MON dynstat_uvel_mean            =  -1.0489159105623E-06
(PID.TID 0000.0001) %MON dynstat_uvel_sd              =   8.6658737944399E-03
(PID.TID 0000.0001) %MON dynstat_uvel_del2            =   2.3127874289094E-04
(PID.TID 0000.0001) %MON dynstat_vvel_max             =   1.2365891892441E-02
(PID.TID 0000.0001) %MON dynstat_vvel_min             =  -1.2375929043986E-02
(PID.TID 0000.0001) %MON dynstat_vvel_mean            =   3.2153224064392E-10
(PID.TID 0000.0001) %MON dynstat_vvel_sd              =   2.4047075225053E-03
(PID.TID 0000.0001) %MON dynstat_vvel_del2            =   1.3277489339658E-04
(PID.TID 0000.0001) %MON dynstat_wvel_max             =   2.8728779731850E-04
(PID.TID 0000.0001) %MON dynstat_wvel_min             =  -2.8925123362613E-04
(PID.TID 0000.0001) %MON dynstat_wvel_mean            =  -1.5263481428745E-21
(PID.TID 0000.0001) %MON dynstat_wvel_sd              =   7.9779943094316E-05
(PID.TID 0000.0001) %MON dynstat_wvel_del2            =   8.2670690515517E-06
(PID.TID 0000.0001) %MON dynstat_theta_max            =   1.7020391872704E+01
(PID.TID 0000.0001) %MON dynstat_theta_min            =   1.6979608188987E+01
(PID.TID 0000.0001) %MON dynstat_theta_mean           =   1.6999999916849E+01
(PID.TID 0000.0001) %MON dynstat_theta_sd             =   1.8681192383680E-02
(PID.TID 0000.0001) %MON dynstat_theta_del2           =   1.9643605894603E-04
(PID.TID 0000.0001) %MON dynstat_salt_max             =   1.7020387109310E+01
(PID.TID 0000.0001) %MON dynstat_salt_min             =   1.6979612982852E+01
(PID.TID 0000.0001) %MON dynstat_salt_mean            =   1.7000000005831E+01
(PID.TID 0000.0001) %MON dynstat_salt_sd              =   1.8684672501805E-02
(PID.TID 0000.0001) %MON dynstat_salt_del2            =   1.9050920631507E-04
(PID.TID 0000.0001) %MON advcfl_uvel_max              =   4.1627190154419E-02
(PID.TID 0000.0001) %MON advcfl_vvel_max              =   1.4851114852783E-02
(PID.TID 0000.0001) %MON advcfl_wvel_max              =   6.9420296070272E-02
(PID.TID 0000.0001) %MON advcfl_W_hf_max              =   6.9420296070272E-02
(PID.TID 0000.0001) %MON pe_b_mean                    =   3.4188292982665E-09
(PID.TID 0000.0001) %MON ke_max                       =   6.6979735914455E-04
(PID.TID 0000.0001) %MON ke_mean                      =   4.0324341629713E-05
(PID.TID 0000.0001) %MON ke_vol                       =   2.5000000000000E+11
(PID.TID 0000.0001) %MON vort_r_min                   =  -9.3781970156570E-06
(PID.TID 0000.0001) %MON vort_r_max                   =   1.0919654352779E-05
(PID.TID 0000.0001) %MON vort_a_mean                  =   7.2900000000001E-05
(PID.TID 0000.0001) %MON vort_a_sd                    =   2.8133063341097E-06
(PID.TID 0000.0001) %MON vort_p_mean                  =   7.7363265306123E-05
(PID.TID 0000.0001) %MON vort_p_sd                    =   3.1057922405803E-05
(PID.TID 0000.0001) %MON surfExpan_theta_mean         =   7.1804720023563E-13
(PID.TID 0000.0001) %MON surfExpan_salt_mean          =  -5.7494808959386E-17
(PID.TID 0000.0001) // =======================================================
(PID.TID 0000.0001) // End MONITOR dynamic field statistics
(PID.TID 0000.0001) // =======================================================
 cg2d: Sum(rhs),rhsMax =   3.16053010585710E-13  7.38522941073317E-04
(PID.TID 0000.0001)                    cg2d_init_res =    1.83787030761017E-01
(PID.TID 0000.0001)                       cg2d_iters =    78
(PID.TID 0000.0001)                         cg2d_res =    7.13165118324878E-12
(PID.TID 0000.0001) // =======================================================
(PID.TID 0000.0001) // Begin MONITOR dynamic field statistics
(PID.TID 0000.0001) // =======================================================
(PID.TID 0000.0001) %MON time_tsnumber                =                    33
(PID.TID 0000.0001) %MON time_secondsf                =   3.9600000000000E+04
(PID.TID 0000.0001) %MON dynstat_eta_max              =   3.9851243477637E-04
(PID.TID 0000.0001) %MON dynstat_eta_min              =  -4.1696739208889E-04
(PID.TID 0000.0001) %MON dynstat_eta_mean             =  -4.4194626062088E-17
(PID.TID 0000.0001) %MON dynstat_eta_sd               =   3.7337513760576E-04
(PID.TID 0000.0001) %MON dynstat_eta_del2             =   3.8909420585534E-06
(PID.TID 0000.0001) %MON dynstat_uvel_max             =   3.4922250829853E-02
(PID.TID 0000.0001) %MON dynstat_uvel_min             =  -3.5071055500058E-02
(PID.TID 0000.0001) %MON dynstat_uvel_mean            =  -1.0550715462648E-06
(PID.TID 0000.0001) %MON dynstat_uvel_sd              =   8.7749663407161E-03
(PID.TID 0000.0001) %MON dynstat_uvel_del2            =   2.3406070663413E-04
(PID.TID 0000.0001) %MON dynstat_vvel_max             =   1.1185848720178E-02
(PID.TID 0000.0001) %MON dynstat_vvel_min             =  -1.1194835575474E-02
(PID.TID 0000.0001) %MON dynstat_vvel_mean            =   2.9482963383959E-10
(PID.TID 0000.0001) %MON dynstat_vvel_sd              =   2.1128756845538E-03
(PID.TID 0000.0001) %MON dynstat_vvel_del2            =   1.2966884844945E-04
(PID.TID 0000.0001) %MON dynstat_wvel_max             =   2.7090407027017E-04
(PID.TID 0000.0001) %MON dynstat_wvel_min             =  -2.7275623026651E-04
(PID.TID 0000.0001) %MON dynstat_wvel_mean            =  -1.4446388631400E-21
(PID.TID 0000.0001) %MON dynstat_wvel_sd              =   7.5108392955812E-05
(PID.TID 0000.0001) %MON dynstat_wvel_del2            =   8.1396507782544E-06
(PID.TID 0000.0001) %MON dynstat_theta_max            =   1.7020391872704E+01
(PID.TID 0000.0001) %MON dynstat_theta_min            =   1.6979608188987E+01
(PID.TID 0000.0001) %MON dynstat_theta_mean           =   1.6999999916846E+01
(PID.TID 0000.0001) %MON dynstat_theta_sd             =   1.8681087798857E-02
(PID.TID 0000.0001) %MON dynstat_theta_del2           =   1.9635579375951E-04
(PID.TID 0000.0001) %MON dynstat_salt_max             =   1.7020387109310E+01
(PID.TID 0000.0001) %MON dynstat_salt_min             =   1.6979612982852E+01
(PID.TID 0000.0001) %MON dynstat_salt_mean            =   1.7000000005831E+01
(PID.TID 0000.0001) %MON dynstat_salt_sd              =   1.8684629000968E-02
(PID.TID 0000.0001) %MON dynstat_salt_del2            =   1.9059534529908E-04
(PID.TID 0000.0001) %MON advcfl_uvel_max              =   4.2085266600069E-02
(PID.TID 0000.0001) %MON advcfl_vvel_max              =   1.3433802690569E-02
(PID.TID 0000.0001) %MON advcfl_wvel_max              =   6.5461495263963E-02
(PID.TID 0000.0001) %MON advcfl_W_hf_max              =   6.5461495263963E-02
(PID.TID 0000.0001) %MON pe_b_mean                    =   3.4190055626965E-09
(PID.TID 0000.0001) %MON ke_max                       =   6.6983971883450E-04
(PID.TID 0000.0001) %MON ke_mean                      =   4.0642854652961E-05
(PID.TID 0000.0001) %MON ke_vol                       =   2.5000000000000E+11
(PID.TID 0000.0001) %MON vort_r_min                   =  -9.4576633445462E-06
(PID.TID 0000.0001) %MON vort_r_max                   =   1.1043609853030E-05
(PID.TID 0000.0001) %MON vort_a_mean                  =   7.2900000000001E-05
(PID.TID 0000.0001) %MON vort_a_sd                    =   2.8465912818525E-06
(PID.TID 0000.0001) %MON vort_p_mean                  =   7.7363265306123E-05
(PID.TID 0000.0001) %MON vort_p_sd                    =   3.1061140706550E-05
(PID.TID 0000.0001) %MON surfExpan_theta_mean         =   6.5440628843843E-13
(PID.TID 0000.0001) %MON surfExpan_salt_mean          =  -8.0789012627357E-17
(PID.TID 0000.0001) // =======================================================
(PID.TID 0000.0001) // End MONITOR dynamic field statistics
(PID.TID 0000.0001) // =======================================================
 cg2d: Sum(rhs),rhsMax =   3.00044386038201E-13  7.42961040693917E-04
(PID.TID 0000.0001)                    cg2d_init_res =    1.64885928736311E-01
(PID.TID 0000.0001)                       cg2d_iters =    78
(PID.TID 0000.0001)                         cg2d_res =    7.01261155622821E-12
(PID.TID 0000.0001) // =======================================================
(PID.TID 0000.0001) // Begin MONITOR dynamic field statistics
(PID.TID 0000.0001) // =======================================================
(PID.TID 0000.0001) %MON time_tsnumber                =                    34
(PID.TID 0000.0001) %MON time_secondsf                =   4.0800000000000E+04
(PID.TID 0000.0001) %MON dynstat_eta_max              =   3.9814654334079E-04
(PID.TID 0000.0001) %MON dynstat_eta_min              =  -4.1733221364648E-04
(PID.TID 0000.0001) %MON dynstat_eta_mean             =  -4.0642851745210E-17
(PID.TID 0000.0001) %MON dynstat_eta_sd               =   3.7338420624869E-04
(PID.TID 0000.0001) %MON dynstat_eta_del2             =   3.8933433976855E-06
(PID.TID 0000.0001) %MON dynstat_uvel_max             =   3.5201860940105E-02
(PID.TID 0000.0001) %MON dynstat_uvel_min             =  -3.5347090421927E-02
(PID.TID 0000.0001) %MON dynstat_uvel_mean            =  -1.0606522002919E-06
(PID.TID 0000.0001) %MON dynstat_uvel_sd              =   8.8542234131265E-03
(PID.TID 0000.0001) %MON dynstat_uvel_del2            =   2.3615526731593E-04
(PID.TID 0000.0001) %MON dynstat_vvel_max             =   9.9890335841758E-03
(PID.TID 0000.0001) %MON dynstat_vvel_min             =  -9.9971882038412E-03
(PID.TID 0000.0001) %MON dynstat_vvel_mean            =   2.6467543269841E-10
(PID.TID 0000.0001) %MON dynstat_vvel_sd              =   1.8349592665199E-03
(PID.TID 0000.0001) %MON dynstat_vvel_del2            =   1.2706797936779E-04
(PID.TID 0000.0001) %MON dynstat_wvel_max             =   2.5430487275071E-04
(PID.TID 0000.0001) %MON dynstat_wvel_min             =  -2.5603088774542E-04
(PID.TID 0000.0001) %MON dynstat_wvel_mean            =  -7.5473571352222E-24
(PID.TID 0000.0001) %MON dynstat_wvel_sd              =   7.0615308518406E-05
(PID.TID 0000.0001) %MON dynstat_wvel_del2            =   8.0226611907437E-06
(PID.TID 0000.0001) %MON dynstat_theta_max            =   1.7020391872704E+01
(PID.TID 0000.0001) %MON dynstat_theta_min            =   1.6979608188987E+01
(PID.TID 0000.0001) %MON dynstat_theta_mean           =   1.6999999916843E+01
(PID.TID 0000.0001) %MON dynstat_theta_sd             =   1.8680993693204E-02
(PID.TID 0000.0001) %MON dynstat_theta_del2           =   1.9627733015372E-04
(PID.TID 0000.0001) %MON dynstat_salt_max             =   1.7020387109310E+01
(PID.TID 0000.0001) %MON dynstat_salt_min             =   1.6979612982851E+01
(PID.TID 0000.0001) %MON dynstat_salt_mean            =   1.7000000005831E+01
(PID.TID 0000.0001) %MON dynstat_salt_sd              =   1.8684585229944E-02
(PID.TID 0000.0001) %MON dynstat_salt_del2            =   1.9071150593372E-04
(PID.TID 0000.0001) %MON advcfl_uvel_max              =   4.2416508506312E-02
(PID.TID 0000.0001) %MON advcfl_vvel_max              =   1.1996625844609E-02
(PID.TID 0000.0001) %MON advcfl_wvel_max              =   6.1447413058900E-02
(PID.TID 0000.0001) %MON advcfl_W_hf_max              =   6.1447413058900E-02
(PID.TID 0000.0001) %MON pe_b_mean                    =   3.4191716482980E-09
(PID.TID 0000.0001) %MON ke_max                       =   6.6758739496346E-04
(PID.TID 0000.0001) %MON ke_mean                      =   4.0814832931968E-05
(PID.TID 0000.0001) %MON ke_vol                       =   2.5000000000000E+11
(PID.TID 0000.0001) %MON vort_r_min                   =  -9.5111331745383E-06
(PID.TID 0000.0001) %MON vort_r_max                   =   1.1138614194602E-05
(PID.TID 0000.0001) %MON vort_a_mean                  =   7.2900000000001E-05
(PID.TID 0000.0001) %MON vort_a_sd                    =   2.8717094696108E-06
(PID.TID 0000.0001) %MON vort_p_mean                  =   7.7363265306123E-05
(PID.TID 0000.0001) %MON vort_p_sd                    =   3.1063594200441E-05
(PID.TID 0000.0001) %MON surfExpan_theta_mean         =   5.7647542234162E-13
(PID.TID 0000.0001) %MON surfExpan_salt_mean          =  -1.0764251342564E-16
(PID.TID 0000.0001) // =======================================================
(PID.TID 0000.0001) // End MONITOR dynamic field statistics
(PID.TID 0000.0001) // =======================================================
 cg2d: Sum(rhs),rhsMax =   2.45511564637285E-13  7.47139755840399E-04
(PID.TID 0000.0001)                    cg2d_init_res =    1.45648597883848E-01
(PID.TID 0000.0001)                       cg2d_iters =    78
(PID.TID 0000.0001)                         cg2d_res =    6.85951354859344E-12
(PID.TID 0000.0001) // =======================================================
(PID.TID 0000.0001) // Begin MONITOR dynamic field statistics
(PID.TID 0000.0001) // =======================================================
(PID.TID 0000.0001) %MON time_tsnumber                =                    35
(PID.TID 0000.0001) %MON time_secondsf                =   4.2000000000000E+04
(PID.TID 0000.0001) %MON dynstat_eta_max              =   3.9784196195696E-04
(PID.TID 0000.0001) %MON dynstat_eta_min              =  -4.1763583599910E-04
(PID.TID 0000.0001) %MON dynstat_eta_mean             =  -2.5414384456912E-17
(PID.TID 0000.0001) %MON dynstat_eta_sd               =   3.7339204153796E-04
(PID.TID 0000.0001) %MON dynstat_eta_del2             =   3.8950984804364E-06
(PID.TID 0000.0001) %MON dynstat_uvel_max             =   3.5376917443847E-02
(PID.TID 0000.0001) %MON dynstat_uvel_min             =  -3.5517888812117E-02
(PID.TID 0000.0001) %MON dynstat_uvel_mean            =  -1.0656399255955E-06
(PID.TID 0000.0001) %MON dynstat_uvel_sd              =   8.9034338141654E-03
(PID.TID 0000.0001) %MON dynstat_uvel_del2            =   2.3757692802323E-04
(PID.TID 0000.0001) %MON dynstat_vvel_max             =   8.7846329249006E-03
(PID.TID 0000.0001) %MON dynstat_vvel_min             =  -8.7922167276262E-03
(PID.TID 0000.0001) %MON dynstat_vvel_mean            =   2.3149928397046E-10
(PID.TID 0000.0001) %MON dynstat_vvel_sd              =   1.5843607499024E-03
(PID.TID 0000.0001) %MON dynstat_vvel_del2            =   1.2475229841098E-04
(PID.TID 0000.0001) %MON dynstat_wvel_max             =   2.3762522916519E-04
(PID.TID 0000.0001) %MON dynstat_wvel_min             =  -2.3921743568847E-04
(PID.TID 0000.0001) %MON dynstat_wvel_mean            =   9.9196329361942E-22
(PID.TID 0000.0001) %MON dynstat_wvel_sd              =   6.6390293533635E-05
(PID.TID 0000.0001) %MON dynstat_wvel_del2            =   7.9163100569536E-06
(PID.TID 0000.0001) %MON dynstat_theta_max            =   1.7020391872704E+01
(PID.TID 0000.0001) %MON dynstat_theta_min            =   1.6979608188987E+01
(PID.TID 0000.0001) %MON dynstat_theta_mean           =   1.6999999916840E+01
(PID.TID 0000.0001) %MON dynstat_theta_sd             =   1.8680910725272E-02
(PID.TID 0000.0001) %MON dynstat_theta_del2           =   1.9620354826861E-04
(PID.TID 0000.0001) %MON dynstat_salt_max             =   1.7020387109310E+01
(PID.TID 0000.0001) %MON dynstat_salt_min             =   1.6979612982851E+01
(PID.TID 0000.0001) %MON dynstat_salt_mean            =   1.7000000005831E+01
(PID.TID 0000.0001) %MON dynstat_salt_sd              =   1.8684541341714E-02
(PID.TID 0000.0001) %MON dynstat_salt_del2            =   1.9085180139500E-04
(PID.TID 0000.0001) %MON advcfl_uvel_max              =   4.2621466574541E-02
(PID.TID 0000.0001) %MON advcfl_vvel_max              =   1.0550660073151E-02
(PID.TID 0000.0001) %MON advcfl_wvel_max              =   5.7412184565232E-02
(PID.TID 0000.0001) %MON advcfl_W_hf_max              =   5.7412184565232E-02
(PID.TID 0000.0001) %MON pe_b_mean                    =   3.4193151491724E-09
(PID.TID 0000.0001) %MON ke_max                       =   6.6310010525431E-04
(PID.TID 0000.0001) %MON ke_mean                      =   4.0840462922606E-05
(PID.TID 0000.0001) %MON ke_vol                       =   2.5000000000000E+11
(PID.TID 0000.0001) %MON vort_r_min                   =  -9.5392870227836E-06
(PID.TID 0000.0001) %MON vort_r_max                   =   1.1205451214957E-05
(PID.TID 0000.0001) %MON vort_a_mean                  =   7.2900000000000E-05
(PID.TID 0000.0001) %MON vort_a_sd                    =   2.8887441922434E-06
(PID.TID 0000.0001) %MON vort_p_mean                  =   7.7363265306122E-05
(PID.TID 0000.0001) %MON vort_p_sd                    =   3.1065270268189E-05
(PID.TID 0000.0001) %MON surfExpan_theta_mean         =   4.8694651324046E-13
(PID.TID 0000.0001) %MON surfExpan_salt_mean          =  -1.3075451956910E-16
(PID.TID 0000.0001) // =======================================================
(PID.TID 0000.0001) // End MONITOR dynamic field statistics
(PID.TID 0000.0001) // =======================================================
 cg2d: Sum(rhs),rhsMax =   9.40927565896976E-14  7.51067853817632E-04
(PID.TID 0000.0001)                    cg2d_init_res =    1.26442964887416E-01
(PID.TID 0000.0001)                       cg2d_iters =    78
(PID.TID 0000.0001)                         cg2d_res =    6.67335732826182E-12
(PID.TID 0000.0001) // =======================================================
(PID.TID 0000.0001) // Begin MONITOR dynamic field statistics
(PID.TID 0000.0001) // =======================================================
(PID.TID 0000.0001) %MON time_tsnumber                =                    36
(PID.TID 0000.0001) %MON time_secondsf                =   4.3200000000000E+04
(PID.TID 0000.0001) %MON dynstat_eta_max              =   3.9760165409788E-04
(PID.TID 0000.0001) %MON dynstat_eta_min              =  -4.1787529809490E-04
(PID.TID 0000.0001) %MON dynstat_eta_mean             =  -1.7398305272587E-17
(PID.TID 0000.0001) %MON dynstat_eta_sd               =   3.7339808871167E-04
(PID.TID 0000.0001) %MON dynstat_eta_del2             =   3.8962533033767E-06
(PID.TID 0000.0001) %MON dynstat_uvel_max             =   3.5448443298001E-02
(PID.TID 0000.0001) %MON dynstat_uvel_min             =  -3.5584590112700E-02
(PID.TID 0000.0001) %MON dynstat_uvel_mean            =  -1.0700256581733E-06
(PID.TID 0000.0001) %MON dynstat_uvel_sd              =   8.9226142972255E-03
(PID.TID 0000.0001) %MON dynstat_uvel_del2            =   2.3835103478229E-04
(PID.TID 0000.0001) %MON dynstat_vvel_max             =   7.5816763960014E-03
(PID.TID 0000.0001) %MON dynstat_vvel_min             =  -7.5889814895306E-03
(PID.TID 0000.0001) %MON dynstat_vvel_mean            =   1.9578258869083E-10
(PID.TID 0000.0001) %MON dynstat_vvel_sd              =   1.3802569597179E-03
(PID.TID 0000.0001) %MON dynstat_vvel_del2            =   1.2271215889431E-04
(PID.TID 0000.0001) %MON dynstat_wvel_max             =   2.2099330962077E-04
(PID.TID 0000.0001) %MON dynstat_wvel_min             =  -2.2245064631820E-04
(PID.TID 0000.0001) %MON dynstat_wvel_mean            =  -2.6718070313428E-22
(PID.TID 0000.0001) %MON dynstat_wvel_sd              =   6.2524465282405E-05
(PID.TID 0000.0001) %MON dynstat_wvel_del2            =   7.8210113440249E-06
(PID.TID 0000.0001) %MON dynstat_theta_max            =   1.7020391872703E+01
(PID.TID 0000.0001) %MON dynstat_theta_min            =   1.6979608188987E+01
(PID.TID 0000.0001) %MON dynstat_theta_mean           =   1.6999999916837E+01
(PID.TID 0000.0001) %MON dynstat_theta_sd             =   1.8680839193316E-02
(PID.TID 0000.0001) %MON dynstat_theta_del2           =   1.9613688409146E-04
(PID.TID 0000.0001) %MON dynstat_salt_max             =   1.7020387109310E+01
(PID.TID 0000.0001) %MON dynstat_salt_min             =   1.6979612982851E+01
(PID.TID 0000.0001) %MON dynstat_salt_mean            =   1.7000000005831E+01
(PID.TID 0000.0001) %MON dynstat_salt_sd              =   1.8684497478515E-02
(PID.TID 0000.0001) %MON dynstat_salt_del2            =   1.9099984960997E-04
(PID.TID 0000.0001) %MON advcfl_uvel_max              =   4.2701508135240E-02
(PID.TID 0000.0001) %MON advcfl_vvel_max              =   9.1067777874368E-03
(PID.TID 0000.0001) %MON advcfl_wvel_max              =   5.3388155116368E-02
(PID.TID 0000.0001) %MON advcfl_W_hf_max              =   5.3388155116368E-02
(PID.TID 0000.0001) %MON pe_b_mean                    =   3.4194259033277E-09
(PID.TID 0000.0001) %MON ke_max                       =   6.5644936875519E-04
(PID.TID 0000.0001) %MON ke_mean                      =   4.0720975972932E-05
(PID.TID 0000.0001) %MON ke_vol                       =   2.5000000000000E+11
(PID.TID 0000.0001) %MON vort_r_min                   =  -9.5429305373962E-06
(PID.TID 0000.0001) %MON vort_r_max                   =   1.1245028636953E-05
(PID.TID 0000.0001) %MON vort_a_mean                  =   7.2900000000000E-05
(PID.TID 0000.0001) %MON vort_a_sd                    =   2.8978363901832E-06
(PID.TID 0000.0001) %MON vort_p_mean                  =   7.7363265306123E-05
(PID.TID 0000.0001) %MON vort_p_sd                    =   3.1066168878252E-05
(PID.TID 0000.0001) %MON surfExpan_theta_mean         =   3.8886043450145E-13
(PID.TID 0000.0001) %MON surfExpan_salt_mean          =  -1.5192321280717E-16
(PID.TID 0000.0001) // =======================================================
(PID.TID 0000.0001) // End MONITOR dynamic field statistics
(PID.TID 0000.0001) // =======================================================
(PID.TID 0000.0001) %CHECKPOINT        36 0000000036
 cg2d: Sum(rhs),rhsMax =   1.20740819686133E-13  7.54761118807032E-04
(PID.TID 0000.0001)                    cg2d_init_res =    1.07662609091379E-01
(PID.TID 0000.0001)                       cg2d_iters =    78
(PID.TID 0000.0001)                         cg2d_res =    6.46399689978760E-12
(PID.TID 0000.0001) // =======================================================
(PID.TID 0000.0001) // Begin MONITOR dynamic field statistics
(PID.TID 0000.0001) // =======================================================
(PID.TID 0000.0001) %MON time_tsnumber                =                    37
(PID.TID 0000.0001) %MON time_secondsf                =   4.4400000000000E+04
(PID.TID 0000.0001) %MON dynstat_eta_max              =   3.9742725591532E-04
(PID.TID 0000.0001) %MON dynstat_eta_min              =  -4.1804896496134E-04
(PID.TID 0000.0001) %MON dynstat_eta_mean             =  -4.8676500546962E-18
(PID.TID 0000.0001) %MON dynstat_eta_sd               =   3.7340193802095E-04
(PID.TID 0000.0001) %MON dynstat_eta_del2             =   3.8968624306218E-06
(PID.TID 0000.0001) %MON dynstat_uvel_max             =   3.5418124280980E-02
(PID.TID 0000.0001) %MON dynstat_uvel_min             =  -3.5548995624055E-02
(PID.TID 0000.0001) %MON dynstat_uvel_mean            =  -1.0738080266101E-06
(PID.TID 0000.0001) %MON dynstat_uvel_sd              =   8.9120079128334E-03
(PID.TID 0000.0001) %MON dynstat_uvel_del2            =   2.3849814787465E-04
(PID.TID 0000.0001) %MON dynstat_vvel_max             =   6.3889826266657E-03
(PID.TID 0000.0001) %MON dynstat_vvel_min             =  -6.3963197233484E-03
(PID.TID 0000.0001) %MON dynstat_vvel_mean            =   1.5821442696053E-10
(PID.TID 0000.0001) %MON dynstat_vvel_sd              =   1.2472317266422E-03
(PID.TID 0000.0001) %MON dynstat_vvel_del2            =   1.2098502104603E-04
(PID.TID 0000.0001) %MON dynstat_wvel_max             =   2.0474925455793E-04
(PID.TID 0000.0001) %MON dynstat_wvel_min             =  -2.0608663193629E-04
(PID.TID 0000.0001) %MON dynstat_wvel_mean            =   9.4175302120699E-22
(PID.TID 0000.0001) %MON dynstat_wvel_sd              =   5.9106644451554E-05
(PID.TID 0000.0001) %MON dynstat_wvel_del2            =   7.7363932226886E-06
(PID.TID 0000.0001) %MON dynstat_theta_max            =   1.7020391872701E+01
(PID.TID 0000.0001) %MON dynstat_theta_min            =   1.6979608188987E+01
(PID.TID 0000.0001) %MON dynstat_theta_mean           =   1.6999999916836E+01
(PID.TID 0000.0001) %MON dynstat_theta_sd             =   1.8680779108656E-02
(PID.TID 0000.0001) %MON dynstat_theta_del2           =   1.9607958403459E-04
(PID.TID 0000.0001) %MON dynstat_salt_max             =   1.7020387109310E+01
(PID.TID 0000.0001) %MON dynstat_salt_min             =   1.6979612982851E+01
(PID.TID 0000.0001) %MON dynstat_salt_mean            =   1.7000000005831E+01
(PID.TID 0000.0001) %MON dynstat_salt_sd              =   1.8684453775631E-02
(PID.TID 0000.0001) %MON dynstat_salt_del2            =   1.9115325476907E-04
(PID.TID 0000.0001) %MON advcfl_uvel_max              =   4.2658794748866E-02
(PID.TID 0000.0001) %MON advcfl_vvel_max              =   7.6755836680181E-03
(PID.TID 0000.0001) %MON advcfl_wvel_max              =   4.9460791664710E-02
(PID.TID 0000.0001) %MON advcfl_W_hf_max              =   4.9460791664710E-02
(PID.TID 0000.0001) %MON pe_b_mean                    =   3.4194964044691E-09
(PID.TID 0000.0001) %MON ke_max                       =   6.4771776841935E-04
(PID.TID 0000.0001) %MON ke_mean                      =   4.0458624846107E-05
(PID.TID 0000.0001) %MON ke_vol                       =   2.5000000000000E+11
(PID.TID 0000.0001) %MON vort_r_min                   =  -9.5229822533902E-06
(PID.TID 0000.0001) %MON vort_r_max                   =   1.1258365006172E-05
(PID.TID 0000.0001) %MON vort_a_mean                  =   7.2900000000001E-05
(PID.TID 0000.0001) %MON vort_a_sd                    =   2.8991824952238E-06
(PID.TID 0000.0001) %MON vort_p_mean                  =   7.7363265306123E-05
(PID.TID 0000.0001) %MON vort_p_sd                    =   3.1066302153403E-05
(PID.TID 0000.0001) %MON surfExpan_theta_mean         =   2.8536375896653E-13
(PID.TID 0000.0001) %MON surfExpan_salt_mean          =  -1.7219192519681E-16
(PID.TID 0000.0001) // =======================================================
(PID.TID 0000.0001) // End MONITOR dynamic field statistics
(PID.TID 0000.0001) // =======================================================
 cg2d: Sum(rhs),rhsMax =  -4.42593010852033E-15  7.58237091940840E-04
(PID.TID 0000.0001)                    cg2d_init_res =    8.97255075231348E-02
(PID.TID 0000.0001)                       cg2d_iters =    78
(PID.TID 0000.0001)                         cg2d_res =    6.20321531124407E-12
(PID.TID 0000.0001) // =======================================================
(PID.TID 0000.0001) // Begin MONITOR dynamic field statistics
(PID.TID 0000.0001) // =======================================================
(PID.TID 0000.0001) %MON time_tsnumber                =                    38
(PID.TID 0000.0001) %MON time_secondsf                =   4.5600000000000E+04
(PID.TID 0000.0001) %MON dynstat_eta_max              =   3.9731905857028E-04
(PID.TID 0000.0001) %MON dynstat_eta_min              =  -4.1815654478212E-04
(PID.TID 0000.0001) %MON dynstat_eta_mean             =  -1.4755530104438E-17
(PID.TID 0000.0001) %MON dynstat_eta_sd               =   3.7340334452067E-04
(PID.TID 0000.0001) %MON dynstat_eta_del2             =   3.8969890673978E-06
(PID.TID 0000.0001) %MON dynstat_uvel_max             =   3.5288289968437E-02
(PID.TID 0000.0001) %MON dynstat_uvel_min             =  -3.5413546843887E-02
(PID.TID 0000.0001) %MON dynstat_uvel_mean            =  -1.0769923026063E-06
(PID.TID 0000.0001) %MON dynstat_uvel_sd              =   8.8720809429961E-03
(PID.TID 0000.0001) %MON dynstat_uvel_del2            =   2.3814536994567E-04
(PID.TID 0000.0001) %MON dynstat_vvel_max             =   5.2151091461751E-03
(PID.TID 0000.0001) %MON dynstat_vvel_min             =  -5.2227965763488E-03
(PID.TID 0000.0001) %MON dynstat_vvel_mean            =   1.1945888946131E-10
(PID.TID 0000.0001) %MON dynstat_vvel_sd              =   1.2073934280215E-03
(PID.TID 0000.0001) %MON dynstat_vvel_del2            =   1.1973502881753E-04
(PID.TID 0000.0001) %MON dynstat_wvel_max             =   1.8887911174086E-04
(PID.TID 0000.0001) %MON dynstat_wvel_min             =  -1.9008940293911E-04
(PID.TID 0000.0001) %MON dynstat_wvel_mean            =  -1.5838916855215E-22
(PID.TID 0000.0001) %MON dynstat_wvel_sd              =   5.6217221056880E-05
(PID.TID 0000.0001) %MON dynstat_wvel_del2            =   7.6618451852715E-06
(PID.TID 0000.0001) %MON dynstat_theta_max            =   1.7020391872701E+01
(PID.TID 0000.0001) %MON dynstat_theta_min            =   1.6979608188987E+01
(PID.TID 0000.0001) %MON dynstat_theta_mean           =   1.6999999916835E+01
(PID.TID 0000.0001) %MON dynstat_theta_sd             =   1.8680730209901E-02
(PID.TID 0000.0001) %MON dynstat_theta_del2           =   1.9603369493405E-04
(PID.TID 0000.0001) %MON dynstat_salt_max             =   1.7020387109310E+01
(PID.TID 0000.0001) %MON dynstat_salt_min             =   1.6979612982851E+01
(PID.TID 0000.0001) %MON dynstat_salt_mean            =   1.7000000005831E+01
(PID.TID 0000.0001) %MON dynstat_salt_sd              =   1.8684410267376E-02
(PID.TID 0000.0001) %MON dynstat_salt_del2            =   1.9133127918376E-04
(PID.TID 0000.0001) %MON advcfl_uvel_max              =   4.2496256212665E-02
(PID.TID 0000.0001) %MON advcfl_vvel_max              =   6.2673558916186E-03
(PID.TID 0000.0001) %MON advcfl_wvel_max              =   4.5621456705386E-02
(PID.TID 0000.0001) %MON advcfl_W_hf_max              =   4.5621456705386E-02
(PID.TID 0000.0001) %MON pe_b_mean                    =   3.4195221650735E-09
(PID.TID 0000.0001) %MON ke_max                       =   6.3699830957457E-04
(PID.TID 0000.0001) %MON ke_mean                      =   4.0056654176708E-05
(PID.TID 0000.0001) %MON ke_vol                       =   2.5000000000000E+11
(PID.TID 0000.0001) %MON vort_r_min                   =  -9.5312953949398E-06
(PID.TID 0000.0001) %MON vort_r_max                   =   1.1246577205571E-05
(PID.TID 0000.0001) %MON vort_a_mean                  =   7.2900000000000E-05
(PID.TID 0000.0001) %MON vort_a_sd                    =   2.8930320418237E-06
(PID.TID 0000.0001) %MON vort_p_mean                  =   7.7363265306122E-05
(PID.TID 0000.0001) %MON vort_p_sd                    =   3.1065693697582E-05
(PID.TID 0000.0001) %MON surfExpan_theta_mean         =   1.7969881208954E-13
(PID.TID 0000.0001) %MON surfExpan_salt_mean          =  -1.9319730049099E-16
(PID.TID 0000.0001) // =======================================================
(PID.TID 0000.0001) // End MONITOR dynamic field statistics
(PID.TID 0000.0001) // =======================================================
 cg2d: Sum(rhs),rhsMax =   9.42427017501524E-14  7.61520542247256E-04
(PID.TID 0000.0001)                    cg2d_init_res =    7.31683344002286E-02
(PID.TID 0000.0001)                       cg2d_iters =    77
(PID.TID 0000.0001)                         cg2d_res =    9.73966105185237E-12
(PID.TID 0000.0001) // =======================================================
(PID.TID 0000.0001) // Begin MONITOR dynamic field statistics
(PID.TID 0000.0001) // =======================================================
(PID.TID 0000.0001) %MON time_tsnumber                =                    39
(PID.TID 0000.0001) %MON time_secondsf                =   4.6800000000000E+04
(PID.TID 0000.0001) %MON dynstat_eta_max              =   3.9727602720279E-04
(PID.TID 0000.0001) %MON dynstat_eta_min              =  -4.1819907047650E-04
(PID.TID 0000.0001) %MON dynstat_eta_mean             =  -1.7762522316334E-17
(PID.TID 0000.0001) %MON dynstat_eta_sd               =   3.7340223880832E-04
(PID.TID 0000.0001) %MON dynstat_eta_del2             =   3.8967035416863E-06
(PID.TID 0000.0001) %MON dynstat_uvel_max             =   3.5061890572032E-02
(PID.TID 0000.0001) %MON dynstat_uvel_min             =  -3.5181368021158E-02
(PID.TID 0000.0001) %MON dynstat_uvel_mean            =  -1.0795894229064E-06
(PID.TID 0000.0001) %MON dynstat_uvel_sd              =   8.8035184656049E-03
(PID.TID 0000.0001) %MON dynstat_uvel_del2            =   2.3730745671161E-04
(PID.TID 0000.0001) %MON dynstat_vvel_max             =   4.0744080010261E-03
(PID.TID 0000.0001) %MON dynstat_vvel_min             =  -4.1372699482090E-03
(PID.TID 0000.0001) %MON dynstat_vvel_mean            =   8.0103246066201E-11
(PID.TID 0000.0001) %MON dynstat_vvel_sd              =   1.2651546024960E-03
(PID.TID 0000.0001) %MON dynstat_vvel_del2            =   1.1911683473044E-04
(PID.TID 0000.0001) %MON dynstat_wvel_max             =   1.7339328853157E-04
(PID.TID 0000.0001) %MON dynstat_wvel_min             =  -1.7449014430251E-04
(PID.TID 0000.0001) %MON dynstat_wvel_mean            =   3.1830136646921E-23
(PID.TID 0000.0001) %MON dynstat_wvel_sd              =   5.3919794630999E-05
(PID.TID 0000.0001) %MON dynstat_wvel_del2            =   7.5984173533849E-06
(PID.TID 0000.0001) %MON dynstat_theta_max            =   1.7020391872701E+01
(PID.TID 0000.0001) %MON dynstat_theta_min            =   1.6979608188987E+01
(PID.TID 0000.0001) %MON dynstat_theta_mean           =   1.6999999916834E+01
(PID.TID 0000.0001) %MON dynstat_theta_sd             =   1.8680691429760E-02
(PID.TID 0000.0001) %MON dynstat_theta_del2           =   1.9600107165232E-04
(PID.TID 0000.0001) %MON dynstat_salt_max             =   1.7020387109310E+01
(PID.TID 0000.0001) %MON dynstat_salt_min             =   1.6979612982851E+01
(PID.TID 0000.0001) %MON dynstat_salt_mean            =   1.7000000005831E+01
(PID.TID 0000.0001) %MON dynstat_salt_sd              =   1.8684367114501E-02
(PID.TID 0000.0001) %MON dynstat_salt_del2            =   1.9150080633140E-04
(PID.TID 0000.0001) %MON advcfl_uvel_max              =   4.2217641625389E-02
(PID.TID 0000.0001) %MON advcfl_vvel_max              =   4.9647239378508E-03
(PID.TID 0000.0001) %MON advcfl_wvel_max              =   4.1877634632602E-02
(PID.TID 0000.0001) %MON advcfl_W_hf_max              =   4.1877634632602E-02
(PID.TID 0000.0001) %MON pe_b_mean                    =   3.4195019135019E-09
(PID.TID 0000.0001) %MON ke_max                       =   6.2439380974080E-04
(PID.TID 0000.0001) %MON ke_mean                      =   3.9519265030624E-05
(PID.TID 0000.0001) %MON ke_vol                       =   2.5000000000000E+11
(PID.TID 0000.0001) %MON vort_r_min                   =  -9.5459393315884E-06
(PID.TID 0000.0001) %MON vort_r_max                   =   1.1210870110053E-05
(PID.TID 0000.0001) %MON vort_a_mean                  =   7.2900000000000E-05
(PID.TID 0000.0001) %MON vort_a_sd                    =   2.8796850375552E-06
(PID.TID 0000.0001) %MON vort_p_mean                  =   7.7363265306123E-05
(PID.TID 0000.0001) %MON vort_p_sd                    =   3.1064377707444E-05
(PID.TID 0000.0001) %MON surfExpan_theta_mean         =   7.5080469634834E-14
(PID.TID 0000.0001) %MON surfExpan_salt_mean          =  -2.0909402542030E-16
(PID.TID 0000.0001) // =======================================================
(PID.TID 0000.0001) // End MONITOR dynamic field statistics
(PID.TID 0000.0001) // =======================================================
 cg2d: Sum(rhs),rhsMax =   6.78610271274971E-14  7.64623318817798E-04
(PID.TID 0000.0001)                    cg2d_init_res =    5.86504718990948E-02
(PID.TID 0000.0001)                       cg2d_iters =    77
(PID.TID 0000.0001)                         cg2d_res =    9.22779951427671E-12
(PID.TID 0000.0001) // =======================================================
(PID.TID 0000.0001) // Begin MONITOR dynamic field statistics
(PID.TID 0000.0001) // =======================================================
(PID.TID 0000.0001) %MON time_tsnumber                =                    40
(PID.TID 0000.0001) %MON time_secondsf                =   4.8000000000000E+04
(PID.TID 0000.0001) %MON dynstat_eta_max              =   3.9729585395642E-04
(PID.TID 0000.0001) %MON dynstat_eta_min              =  -4.1817884741618E-04
(PID.TID 0000.0001) %MON dynstat_eta_mean             =  -3.1007361717683E-17
(PID.TID 0000.0001) %MON dynstat_eta_sd               =   3.7339870808931E-04
(PID.TID 0000.0001) %MON dynstat_eta_del2             =   3.8960846076200E-06
(PID.TID 0000.0001) %MON dynstat_uvel_max             =   3.4742470574989E-02
(PID.TID 0000.0001) %MON dynstat_uvel_min             =  -3.4856083033986E-02
(PID.TID 0000.0001) %MON dynstat_uvel_mean            =  -1.0816150430852E-06
(PID.TID 0000.0001) %MON dynstat_uvel_sd              =   8.7072185946687E-03
(PID.TID 0000.0001) %MON dynstat_uvel_del2            =   2.3592265715415E-04
(PID.TID 0000.0001) %MON dynstat_vvel_max             =   4.7788090272257E-03
(PID.TID 0000.0001) %MON dynstat_vvel_min             =  -4.8330754747004E-03
(PID.TID 0000.0001) %MON dynstat_vvel_mean            =   4.0875231771201E-11
(PID.TID 0000.0001) %MON dynstat_vvel_sd              =   1.4021899737277E-03
(PID.TID 0000.0001) %MON dynstat_vvel_del2            =   1.1896370426407E-04
(PID.TID 0000.0001) %MON dynstat_wvel_max             =   1.5862674699511E-04
(PID.TID 0000.0001) %MON dynstat_wvel_min             =  -1.5961169498876E-04
(PID.TID 0000.0001) %MON dynstat_wvel_mean            =  -1.2270616638943E-21
(PID.TID 0000.0001) %MON dynstat_wvel_sd              =   5.2251814507774E-05
(PID.TID 0000.0001) %MON dynstat_wvel_del2            =   7.5446434914111E-06
(PID.TID 0000.0001) %MON dynstat_theta_max            =   1.7020391872701E+01
(PID.TID 0000.0001) %MON dynstat_theta_min            =   1.6979608188987E+01
(PID.TID 0000.0001) %MON dynstat_theta_mean           =   1.6999999916834E+01
(PID.TID 0000.0001) %MON dynstat_theta_sd             =   1.8680660295958E-02
(PID.TID 0000.0001) %MON dynstat_theta_del2           =   1.9598209647828E-04
(PID.TID 0000.0001) %MON dynstat_salt_max             =   1.7020387109310E+01
(PID.TID 0000.0001) %MON dynstat_salt_min             =   1.6979612982851E+01
(PID.TID 0000.0001) %MON dynstat_salt_mean            =   1.7000000005831E+01
(PID.TID 0000.0001) %MON dynstat_salt_sd              =   1.8684323417041E-02
(PID.TID 0000.0001) %MON dynstat_salt_del2            =   1.9170758892076E-04
(PID.TID 0000.0001) %MON advcfl_uvel_max              =   4.1827299640783E-02
(PID.TID 0000.0001) %MON advcfl_vvel_max              =   5.7996905696405E-03
(PID.TID 0000.0001) %MON advcfl_wvel_max              =   3.8306806797302E-02
(PID.TID 0000.0001) %MON advcfl_W_hf_max              =   3.8306806797302E-02
(PID.TID 0000.0001) %MON pe_b_mean                    =   3.4194372473478E-09
(PID.TID 0000.0001) %MON ke_max                       =   6.1001635541575E-04
(PID.TID 0000.0001) %MON ke_mean                      =   3.8851574039381E-05
(PID.TID 0000.0001) %MON ke_vol                       =   2.5000000000000E+11
(PID.TID 0000.0001) %MON vort_r_min                   =  -9.5418535177842E-06
(PID.TID 0000.0001) %MON vort_r_max                   =   1.1152526869722E-05
(PID.TID 0000.0001) %MON vort_a_mean                  =   7.2900000000000E-05
(PID.TID 0000.0001) %MON vort_a_sd                    =   2.8594891116734E-06
(PID.TID 0000.0001) %MON vort_p_mean                  =   7.7363265306122E-05
(PID.TID 0000.0001) %MON vort_p_sd                    =   3.1062397899354E-05
(PID.TID 0000.0001) %MON surfExpan_theta_mean         =  -2.5606481471094E-14
(PID.TID 0000.0001) %MON surfExpan_salt_mean          =  -2.2272479510769E-16
(PID.TID 0000.0001) // =======================================================
(PID.TID 0000.0001) // End MONITOR dynamic field statistics
(PID.TID 0000.0001) // =======================================================
 cg2d: Sum(rhs),rhsMax =   1.15961114408730E-13  7.67545599944237E-04
(PID.TID 0000.0001)                    cg2d_init_res =    4.72117641785424E-02
(PID.TID 0000.0001)                       cg2d_iters =    77
(PID.TID 0000.0001)                         cg2d_res =    8.44617077160077E-12
(PID.TID 0000.0001) // =======================================================
(PID.TID 0000.0001) // Begin MONITOR dynamic field statistics
(PID.TID 0000.0001) // =======================================================
(PID.TID 0000.0001) %MON time_tsnumber                =                    41
(PID.TID 0000.0001) %MON time_secondsf                =   4.9200000000000E+04
(PID.TID 0000.0001) %MON dynstat_eta_max              =   3.9737502746435E-04
(PID.TID 0000.0001) %MON dynstat_eta_min              =  -4.1809938368097E-04
(PID.TID 0000.0001) %MON dynstat_eta_mean             =  -2.8126847307353E-17
(PID.TID 0000.0001) %MON dynstat_eta_sd               =   3.7339296849152E-04
(PID.TID 0000.0001) %MON dynstat_eta_del2             =   3.8952075443011E-06
(PID.TID 0000.0001) %MON dynstat_uvel_max             =   3.4334140412662E-02
(PID.TID 0000.0001) %MON dynstat_uvel_min             =  -3.4441850328226E-02
(PID.TID 0000.0001) %MON dynstat_uvel_mean            =  -1.0830886764548E-06
(PID.TID 0000.0001) %MON dynstat_uvel_sd              =   8.5842854307846E-03
(PID.TID 0000.0001) %MON dynstat_uvel_del2            =   2.3402577893121E-04
(PID.TID 0000.0001) %MON dynstat_vvel_max             =   5.4610122882906E-03
(PID.TID 0000.0001) %MON dynstat_vvel_min             =  -5.5058149726372E-03
(PID.TID 0000.0001) %MON dynstat_vvel_mean            =   2.6191813861045E-12
(PID.TID 0000.0001) %MON dynstat_vvel_sd              =   1.5907206995217E-03
(PID.TID 0000.0001) %MON dynstat_vvel_del2            =   1.1910745338359E-04
(PID.TID 0000.0001) %MON dynstat_wvel_max             =   1.4705279106769E-04
(PID.TID 0000.0001) %MON dynstat_wvel_min             =  -1.4546259306328E-04
(PID.TID 0000.0001) %MON dynstat_wvel_mean            =  -6.7785711060699E-22
(PID.TID 0000.0001) %MON dynstat_wvel_sd              =   5.1216740248057E-05
(PID.TID 0000.0001) %MON dynstat_wvel_del2            =   7.4993486371675E-06
(PID.TID 0000.0001) %MON dynstat_theta_max            =   1.7020391872701E+01
(PID.TID 0000.0001) %MON dynstat_theta_min            =   1.6979608188987E+01
(PID.TID 0000.0001) %MON dynstat_theta_mean           =   1.6999999916835E+01
(PID.TID 0000.0001) %MON dynstat_theta_sd             =   1.8680631830189E-02
(PID.TID 0000.0001) %MON dynstat_theta_del2           =   1.9597403430933E-04
(PID.TID 0000.0001) %MON dynstat_salt_max             =   1.7020387109310E+01
(PID.TID 0000.0001) %MON dynstat_salt_min             =   1.6979612982851E+01
(PID.TID 0000.0001) %MON dynstat_salt_mean            =   1.7000000005832E+01
(PID.TID 0000.0001) %MON dynstat_salt_sd              =   1.8684279099961E-02
(PID.TID 0000.0001) %MON dynstat_salt_del2            =   1.9200592463151E-04
(PID.TID 0000.0001) %MON advcfl_uvel_max              =   4.1330220393871E-02
(PID.TID 0000.0001) %MON advcfl_vvel_max              =   6.6069779671646E-03
(PID.TID 0000.0001) %MON advcfl_wvel_max              =   3.5292669856246E-02
(PID.TID 0000.0001) %MON advcfl_W_hf_max              =   3.5292669856246E-02
(PID.TID 0000.0001) %MON pe_b_mean                    =   3.4193321262363E-09
(PID.TID 0000.0001) %MON ke_max                       =   5.9398870828272E-04
(PID.TID 0000.0001) %MON ke_mean                      =   3.8059567090196E-05
(PID.TID 0000.0001) %MON ke_vol                       =   2.5000000000000E+11
(PID.TID 0000.0001) %MON vort_r_min                   =  -9.5197690970441E-06
(PID.TID 0000.0001) %MON vort_r_max                   =   1.1072900983563E-05
(PID.TID 0000.0001) %MON vort_a_mean                  =   7.2900000000000E-05
(PID.TID 0000.0001) %MON vort_a_sd                    =   2.8328364066374E-06
(PID.TID 0000.0001) %MON vort_p_mean                  =   7.7363265306122E-05
(PID.TID 0000.0001) %MON vort_p_sd                    =   3.1059806280278E-05
(PID.TID 0000.0001) %MON surfExpan_theta_mean         =  -1.1992607695320E-13
(PID.TID 0000.0001) %MON surfExpan_salt_mean          =  -2.4477300462209E-16
(PID.TID 0000.0001) // =======================================================
(PID.TID 0000.0001) // End MONITOR dynamic field statistics
(PID.TID 0000.0001) // =======================================================
 cg2d: Sum(rhs),rhsMax =   7.72708719926074E-14  7.70297953445386E-04
(PID.TID 0000.0001)                    cg2d_init_res =    4.05274050535056E-02
(PID.TID 0000.0001)                       cg2d_iters =    77
(PID.TID 0000.0001)                         cg2d_res =    8.47010657345571E-12
(PID.TID 0000.0001) // =======================================================
(PID.TID 0000.0001) // Begin MONITOR dynamic field statistics
(PID.TID 0000.0001) // =======================================================
(PID.TID 0000.0001) %MON time_tsnumber                =                    42
(PID.TID 0000.0001) %MON time_secondsf                =   5.0400000000000E+04
(PID.TID 0000.0001) %MON dynstat_eta_max              =   3.9750895739432E-04
(PID.TID 0000.0001) %MON dynstat_eta_min              =  -4.1796526581537E-04
(PID.TID 0000.0001) %MON dynstat_eta_mean             =  -3.3749931972471E-17
(PID.TID 0000.0001) %MON dynstat_eta_sd               =   3.7338531113767E-04
(PID.TID 0000.0001) %MON dynstat_eta_del2             =   3.8941021971556E-06
(PID.TID 0000.0001) %MON dynstat_uvel_max             =   3.3841543135835E-02
(PID.TID 0000.0001) %MON dynstat_uvel_min             =  -3.3943401884427E-02
(PID.TID 0000.0001) %MON dynstat_uvel_mean            =  -1.0840329568924E-06
(PID.TID 0000.0001) %MON dynstat_uvel_sd              =   8.4360207683807E-03
(PID.TID 0000.0001) %MON dynstat_uvel_del2            =   2.3165446136956E-04
(PID.TID 0000.0001) %MON dynstat_vvel_max             =   6.1154669594074E-03
(PID.TID 0000.0001) %MON dynstat_vvel_min             =  -6.1507726352387E-03
(PID.TID 0000.0001) %MON dynstat_vvel_mean            =  -3.3604730883789E-11
(PID.TID 0000.0001) %MON dynstat_vvel_sd              =   1.8067141376674E-03
(PID.TID 0000.0001) %MON dynstat_vvel_del2            =   1.1946357964727E-04
(PID.TID 0000.0001) %MON dynstat_wvel_max             =   1.3896232820672E-04
(PID.TID 0000.0001) %MON dynstat_wvel_min             =  -1.3727721972099E-04
(PID.TID 0000.0001) %MON dynstat_wvel_mean            =  -5.9103327502076E-22
(PID.TID 0000.0001) %MON dynstat_wvel_sd              =   5.0780710687184E-05
(PID.TID 0000.0001) %MON dynstat_wvel_del2            =   7.4615445554623E-06
(PID.TID 0000.0001) %MON dynstat_theta_max            =   1.7020391872701E+01
(PID.TID 0000.0001) %MON dynstat_theta_min            =   1.6979608188987E+01
(PID.TID 0000.0001) %MON dynstat_theta_mean           =   1.6999999916836E+01
(PID.TID 0000.0001) %MON dynstat_theta_sd             =   1.8680601370828E-02
(PID.TID 0000.0001) %MON dynstat_theta_del2           =   1.9597419366454E-04
(PID.TID 0000.0001) %MON dynstat_salt_max             =   1.7020387109310E+01
(PID.TID 0000.0001) %MON dynstat_salt_min             =   1.6979612982851E+01
(PID.TID 0000.0001) %MON dynstat_salt_mean            =   1.7000000005832E+01
(PID.TID 0000.0001) %MON dynstat_salt_sd              =   1.8684235592819E-02
(PID.TID 0000.0001) %MON dynstat_salt_del2            =   1.9226751442798E-04
(PID.TID 0000.0001) %MON advcfl_uvel_max              =   4.0732082261312E-02
(PID.TID 0000.0001) %MON advcfl_vvel_max              =   7.3809271622865E-03
(PID.TID 0000.0001) %MON advcfl_wvel_max              =   3.3350958769613E-02
(PID.TID 0000.0001) %MON advcfl_W_hf_max              =   3.3350958769613E-02
(PID.TID 0000.0001) %MON pe_b_mean                    =   3.4191918838119E-09
(PID.TID 0000.0001) %MON ke_max                       =   5.7644194232851E-04
(PID.TID 0000.0001) %MON ke_mean                      =   3.7150047457957E-05
(PID.TID 0000.0001) %MON ke_vol                       =   2.5000000000000E+11
(PID.TID 0000.0001) %MON vort_r_min                   =  -9.4805685366390E-06
(PID.TID 0000.0001) %MON vort_r_max                   =   1.0973407027974E-05
(PID.TID 0000.0001) %MON vort_a_mean                  =   7.2900000000001E-05
(PID.TID 0000.0001) %MON vort_a_sd                    =   2.8001601972949E-06
(PID.TID 0000.0001) %MON vort_p_mean                  =   7.7363265306124E-05
(PID.TID 0000.0001) %MON vort_p_sd                    =   3.1056661795488E-05
(PID.TID 0000.0001) %MON surfExpan_theta_mean         =  -2.0625365947334E-13
(PID.TID 0000.0001) %MON surfExpan_salt_mean          =  -2.5487989931057E-16
(PID.TID 0000.0001) // =======================================================
(PID.TID 0000.0001) // End MONITOR dynamic field statistics
(PID.TID 0000.0001) // =======================================================
 cg2d: Sum(rhs),rhsMax =   8.07341389921779E-14  7.72882262687444E-04
(PID.TID 0000.0001)                    cg2d_init_res =    3.94553693861313E-02
(PID.TID 0000.0001)                       cg2d_iters =    77
(PID.TID 0000.0001)                         cg2d_res =    8.51406635558877E-12
(PID.TID 0000.0001) // =======================================================
(PID.TID 0000.0001) // Begin MONITOR dynamic field statistics
(PID.TID 0000.0001) // =======================================================
(PID.TID 0000.0001) %MON time_tsnumber                =                    43
(PID.TID 0000.0001) %MON time_secondsf                =   5.1600000000000E+04
(PID.TID 0000.0001) %MON dynstat_eta_max              =   3.9769213157749E-04
(PID.TID 0000.0001) %MON dynstat_eta_min              =  -4.1778199987078E-04
(PID.TID 0000.0001) %MON dynstat_eta_mean             =  -3.6055106054644E-17
(PID.TID 0000.0001) %MON dynstat_eta_sd               =   3.7337612828694E-04
(PID.TID 0000.0001) %MON dynstat_eta_del2             =   3.8927817813218E-06
(PID.TID 0000.0001) %MON dynstat_uvel_max             =   3.3269819354686E-02
(PID.TID 0000.0001) %MON dynstat_uvel_min             =  -3.3365958185619E-02
(PID.TID 0000.0001) %MON dynstat_uvel_mean            =  -1.0844729536660E-06
(PID.TID 0000.0001) %MON dynstat_uvel_sd              =   8.2639145948139E-03
(PID.TID 0000.0001) %MON dynstat_uvel_del2            =   2.2884788469098E-04
(PID.TID 0000.0001) %MON dynstat_vvel_max             =   6.7338945016763E-03
(PID.TID 0000.0001) %MON dynstat_vvel_min             =  -6.7595238577582E-03
(PID.TID 0000.0001) %MON dynstat_vvel_mean            =  -6.7318540204817E-11
(PID.TID 0000.0001) %MON dynstat_vvel_sd              =   2.0332845139402E-03
(PID.TID 0000.0001) %MON dynstat_vvel_del2            =   1.1990001780647E-04
(PID.TID 0000.0001) %MON dynstat_wvel_max             =   1.3147392125259E-04
(PID.TID 0000.0001) %MON dynstat_wvel_min             =  -1.3034374050447E-04
(PID.TID 0000.0001) %MON dynstat_wvel_mean            =  -6.8534114110933E-22
(PID.TID 0000.0001) %MON dynstat_wvel_sd              =   5.0875721759814E-05
(PID.TID 0000.0001) %MON dynstat_wvel_del2            =   7.4297120092865E-06
(PID.TID 0000.0001) %MON dynstat_theta_max            =   1.7020391872701E+01
(PID.TID 0000.0001) %MON dynstat_theta_min            =   1.6979608188987E+01
(PID.TID 0000.0001) %MON dynstat_theta_mean           =   1.6999999916838E+01
(PID.TID 0000.0001) %MON dynstat_theta_sd             =   1.8680566981644E-02
(PID.TID 0000.0001) %MON dynstat_theta_del2           =   1.9597972678956E-04
(PID.TID 0000.0001) %MON dynstat_salt_max             =   1.7020387109310E+01
(PID.TID 0000.0001) %MON dynstat_salt_min             =   1.6979612982851E+01
(PID.TID 0000.0001) %MON dynstat_salt_mean            =   1.7000000005831E+01
(PID.TID 0000.0001) %MON dynstat_salt_sd              =   1.8684191707066E-02
(PID.TID 0000.0001) %MON dynstat_salt_del2            =   1.9249495465532E-04
(PID.TID 0000.0001) %MON advcfl_uvel_max              =   4.0039149822743E-02
(PID.TID 0000.0001) %MON advcfl_vvel_max              =   8.1114286293098E-03
(PID.TID 0000.0001) %MON advcfl_wvel_max              =   3.1553741100622E-02
(PID.TID 0000.0001) %MON advcfl_W_hf_max              =   3.1553741100622E-02
(PID.TID 0000.0001) %MON pe_b_mean                    =   3.4190237061057E-09
(PID.TID 0000.0001) %MON ke_max                       =   5.5750796503416E-04
(PID.TID 0000.0001) %MON ke_mean                      =   3.6130580842252E-05
(PID.TID 0000.0001) %MON ke_vol                       =   2.5000000000000E+11
(PID.TID 0000.0001) %MON vort_r_min                   =  -9.4252731823010E-06
(PID.TID 0000.0001) %MON vort_r_max                   =   1.0855508588327E-05
(PID.TID 0000.0001) %MON vort_a_mean                  =   7.2900000000000E-05
(PID.TID 0000.0001) %MON vort_a_sd                    =   2.7619312091805E-06
(PID.TID 0000.0001) %MON vort_p_mean                  =   7.7363265306123E-05
(PID.TID 0000.0001) %MON vort_p_sd                    =   3.1053028886750E-05
(PID.TID 0000.0001) %MON surfExpan_theta_mean         =  -2.8257278636749E-13
(PID.TID 0000.0001) %MON surfExpan_salt_mean          =  -2.5932556129039E-16
(PID.TID 0000.0001) // =======================================================
(PID.TID 0000.0001) // End MONITOR dynamic field statistics
(PID.TID 0000.0001) // =======================================================
 cg2d: Sum(rhs),rhsMax =   9.63294656715352E-14  7.75322883297376E-04
(PID.TID 0000.0001)                    cg2d_init_res =    4.31156013534851E-02
(PID.TID 0000.0001)                       cg2d_iters =    77
(PID.TID 0000.0001)                         cg2d_res =    9.08956713919156E-12
(PID.TID 0000.0001) // =======================================================
(PID.TID 0000.0001) // Begin MONITOR dynamic field statistics
(PID.TID 0000.0001) // =======================================================
(PID.TID 0000.0001) %MON time_tsnumber                =                    44
(PID.TID 0000.0001) %MON time_secondsf                =   5.2800000000000E+04
(PID.TID 0000.0001) %MON dynstat_eta_max              =   3.9791824867865E-04
(PID.TID 0000.0001) %MON dynstat_eta_min              =  -4.1755588064995E-04
(PID.TID 0000.0001) %MON dynstat_eta_mean             =  -3.3915793447581E-17
(PID.TID 0000.0001) %MON dynstat_eta_sd               =   3.7336592743060E-04
(PID.TID 0000.0001) %MON dynstat_eta_del2             =   3.8912530410381E-06
(PID.TID 0000.0001) %MON dynstat_uvel_max             =   3.2624567483846E-02
(PID.TID 0000.0001) %MON dynstat_uvel_min             =  -3.2715188598177E-02
(PID.TID 0000.0001) %MON dynstat_uvel_mean            =  -1.0844355492975E-06
(PID.TID 0000.0001) %MON dynstat_uvel_sd              =   8.0696345313476E-03
(PID.TID 0000.0001) %MON dynstat_uvel_del2            =   2.2565806866662E-04
(PID.TID 0000.0001) %MON dynstat_vvel_max             =   7.3118693822028E-03
(PID.TID 0000.0001) %MON dynstat_vvel_min             =  -7.3277517927430E-03
(PID.TID 0000.0001) %MON dynstat_vvel_mean            =  -9.8655272043719E-11
(PID.TID 0000.0001) %MON dynstat_vvel_sd              =   2.2592101343951E-03
(PID.TID 0000.0001) %MON dynstat_vvel_del2            =   1.2048495840155E-04
(PID.TID 0000.0001) %MON dynstat_wvel_max             =   1.2904414318523E-04
(PID.TID 0000.0001) %MON dynstat_wvel_min             =  -1.2740478369781E-04
(PID.TID 0000.0001) %MON dynstat_wvel_mean            =   6.3665734385875E-22
(PID.TID 0000.0001) %MON dynstat_wvel_sd              =   5.1408525243166E-05
(PID.TID 0000.0001) %MON dynstat_wvel_del2            =   7.4028834139874E-06
(PID.TID 0000.0001) %MON dynstat_theta_max            =   1.7020391872693E+01
(PID.TID 0000.0001) %MON dynstat_theta_min            =   1.6979608188987E+01
(PID.TID 0000.0001) %MON dynstat_theta_mean           =   1.6999999916840E+01
(PID.TID 0000.0001) %MON dynstat_theta_sd             =   1.8680527867494E-02
(PID.TID 0000.0001) %MON dynstat_theta_del2           =   1.9598870664520E-04
(PID.TID 0000.0001) %MON dynstat_salt_max             =   1.7020387109310E+01
(PID.TID 0000.0001) %MON dynstat_salt_min             =   1.6979612982850E+01
(PID.TID 0000.0001) %MON dynstat_salt_mean            =   1.7000000005832E+01
(PID.TID 0000.0001) %MON dynstat_salt_sd              =   1.8684143093731E-02
(PID.TID 0000.0001) %MON dynstat_salt_del2            =   1.9278388024832E-04
(PID.TID 0000.0001) %MON advcfl_uvel_max              =   3.9258226317812E-02
(PID.TID 0000.0001) %MON advcfl_vvel_max              =   8.7933021512916E-03
(PID.TID 0000.0001) %MON advcfl_wvel_max              =   3.0970594364455E-02
(PID.TID 0000.0001) %MON advcfl_W_hf_max              =   3.0970594364455E-02
(PID.TID 0000.0001) %MON pe_b_mean                    =   3.4188368891639E-09
(PID.TID 0000.0001) %MON ke_max                       =   5.3733024484890E-04
(PID.TID 0000.0001) %MON ke_mean                      =   3.5009435929809E-05
(PID.TID 0000.0001) %MON ke_vol                       =   2.5000000000000E+11
(PID.TID 0000.0001) %MON vort_r_min                   =  -9.3550265347847E-06
(PID.TID 0000.0001) %MON vort_r_max                   =   1.0720710062684E-05
(PID.TID 0000.0001) %MON vort_a_mean                  =   7.2900000000000E-05
(PID.TID 0000.0001) %MON vort_a_sd                    =   2.7186537380633E-06
(PID.TID 0000.0001) %MON vort_p_mean                  =   7.7363265306123E-05
(PID.TID 0000.0001) %MON vort_p_sd                    =   3.1048976007948E-05
(PID.TID 0000.0001) %MON surfExpan_theta_mean         =  -3.4653308498051E-13
(PID.TID 0000.0001) %MON surfExpan_salt_mean          =  -2.0070191284106E-16
(PID.TID 0000.0001) // =======================================================
(PID.TID 0000.0001) // End MONITOR dynamic field statistics
(PID.TID 0000.0001) // =======================================================
 cg2d: Sum(rhs),rhsMax =   2.00940447007275E-13  7.77637245506888E-04
(PID.TID 0000.0001)                    cg2d_init_res =    4.92667301625304E-02
(PID.TID 0000.0001)                       cg2d_iters =    77
(PID.TID 0000.0001)                         cg2d_res =    9.33846167581947E-12
(PID.TID 0000.0001) // =======================================================
(PID.TID 0000.0001) // Begin MONITOR dynamic field statistics
(PID.TID 0000.0001) // =======================================================
(PID.TID 0000.0001) %MON time_tsnumber                =                    45
(PID.TID 0000.0001) %MON time_secondsf                =   5.4000000000000E+04
(PID.TID 0000.0001) %MON dynstat_eta_max              =   3.9818038402954E-04
(PID.TID 0000.0001) %MON dynstat_eta_min              =  -4.1729382871129E-04
(PID.TID 0000.0001) %MON dynstat_eta_mean             =  -3.2768992864751E-17
(PID.TID 0000.0001) %MON dynstat_eta_sd               =   3.7335528476929E-04
(PID.TID 0000.0001) %MON dynstat_eta_del2             =   3.8895393791912E-06
(PID.TID 0000.0001) %MON dynstat_uvel_max             =   3.1911802926760E-02
(PID.TID 0000.0001) %MON dynstat_uvel_min             =  -3.1997169560883E-02
(PID.TID 0000.0001) %MON dynstat_uvel_mean            =  -1.0839488352030E-06
(PID.TID 0000.0001) %MON dynstat_uvel_sd              =   7.8550142891967E-03
(PID.TID 0000.0001) %MON dynstat_uvel_del2            =   2.2212324143573E-04
(PID.TID 0000.0001) %MON dynstat_vvel_max             =   7.8452754491244E-03
(PID.TID 0000.0001) %MON dynstat_vvel_min             =  -7.8514398454354E-03
(PID.TID 0000.0001) %MON dynstat_vvel_mean            =  -1.2782537031245E-10
(PID.TID 0000.0001) %MON dynstat_vvel_sd              =   2.4769330650789E-03
(PID.TID 0000.0001) %MON dynstat_vvel_del2            =   1.2115197829783E-04
(PID.TID 0000.0001) %MON dynstat_wvel_max             =   1.3830792209094E-04
(PID.TID 0000.0001) %MON dynstat_wvel_min             =  -1.3675176981396E-04
(PID.TID 0000.0001) %MON dynstat_wvel_mean            =   7.9082012155326E-22
(PID.TID 0000.0001) %MON dynstat_wvel_sd              =   5.2272294736308E-05
(PID.TID 0000.0001) %MON dynstat_wvel_del2            =   7.3804698109302E-06
(PID.TID 0000.0001) %MON dynstat_theta_max            =   1.7020391872692E+01
(PID.TID 0000.0001) %MON dynstat_theta_min            =   1.6979608188987E+01
(PID.TID 0000.0001) %MON dynstat_theta_mean           =   1.6999999916842E+01
(PID.TID 0000.0001) %MON dynstat_theta_sd             =   1.8680484324010E-02
(PID.TID 0000.0001) %MON dynstat_theta_del2           =   1.9600097890279E-04
(PID.TID 0000.0001) %MON dynstat_salt_max             =   1.7020387109310E+01
(PID.TID 0000.0001) %MON dynstat_salt_min             =   1.6979612982850E+01
(PID.TID 0000.0001) %MON dynstat_salt_mean            =   1.7000000005832E+01
(PID.TID 0000.0001) %MON dynstat_salt_sd              =   1.8684067525032E-02
(PID.TID 0000.0001) %MON dynstat_salt_del2            =   1.9327555571447E-04
(PID.TID 0000.0001) %MON advcfl_uvel_max              =   3.8396603473060E-02
(PID.TID 0000.0001) %MON advcfl_vvel_max              =   9.4217278145224E-03
(PID.TID 0000.0001) %MON advcfl_wvel_max              =   3.3193901301827E-02
(PID.TID 0000.0001) %MON advcfl_W_hf_max              =   3.3193901301827E-02
(PID.TID 0000.0001) %MON pe_b_mean                    =   3.4186419865131E-09
(PID.TID 0000.0001) %MON ke_max                       =   5.1605855304885E-04
(PID.TID 0000.0001) %MON ke_mean                      =   3.3795520085478E-05
(PID.TID 0000.0001) %MON ke_vol                       =   2.5000000000000E+11
(PID.TID 0000.0001) %MON vort_r_min                   =  -9.2710768356823E-06
(PID.TID 0000.0001) %MON vort_r_max                   =   1.0570550315954E-05
(PID.TID 0000.0001) %MON vort_a_mean                  =   7.2900000000000E-05
(PID.TID 0000.0001) %MON vort_a_sd                    =   2.6708615459053E-06
(PID.TID 0000.0001) %MON vort_p_mean                  =   7.7363265306122E-05
(PID.TID 0000.0001) %MON vort_p_sd                    =   3.1044574132514E-05
(PID.TID 0000.0001) %MON surfExpan_theta_mean         =  -3.9651281534863E-13
(PID.TID 0000.0001) %MON surfExpan_salt_mean          =  -3.6766994541808E-16
(PID.TID 0000.0001) // =======================================================
(PID.TID 0000.0001) // End MONITOR dynamic field statistics
(PID.TID 0000.0001) // =======================================================
 cg2d: Sum(rhs),rhsMax =   1.16038851704497E-13  7.79828251655424E-04
(PID.TID 0000.0001)                    cg2d_init_res =    5.61763891014349E-02
(PID.TID 0000.0001)                       cg2d_iters =    78
(PID.TID 0000.0001)                         cg2d_res =    7.49662391839264E-12
(PID.TID 0000.0001) // =======================================================
(PID.TID 0000.0001) // Begin MONITOR dynamic field statistics
(PID.TID 0000.0001) // =======================================================
(PID.TID 0000.0001) %MON time_tsnumber                =                    46
(PID.TID 0000.0001) %MON time_secondsf                =   5.5200000000000E+04
(PID.TID 0000.0001) %MON dynstat_eta_max              =   3.9847054344462E-04
(PID.TID 0000.0001) %MON dynstat_eta_min              =  -4.1700382911445E-04
(PID.TID 0000.0001) %MON dynstat_eta_mean             =  -3.6832416159260E-17
(PID.TID 0000.0001) %MON dynstat_eta_sd               =   3.7334481561076E-04
(PID.TID 0000.0001) %MON dynstat_eta_del2             =   3.8876974126172E-06
(PID.TID 0000.0001) %MON dynstat_uvel_max             =   3.1137912764292E-02
(PID.TID 0000.0001) %MON dynstat_uvel_min             =  -3.1218341090992E-02
(PID.TID 0000.0001) %MON dynstat_uvel_mean            =  -1.0830415887041E-06
(PID.TID 0000.0001) %MON dynstat_uvel_sd              =   7.6220411832521E-03
(PID.TID 0000.0001) %MON dynstat_uvel_del2            =   2.1830266583819E-04
(PID.TID 0000.0001) %MON dynstat_vvel_max             =   8.3303350777467E-03
(PID.TID 0000.0001) %MON dynstat_vvel_min             =  -8.3268975729366E-03
(PID.TID 0000.0001) %MON dynstat_vvel_mean            =  -1.5566093456476E-10
(PID.TID 0000.0001) %MON dynstat_vvel_sd              =   2.6811660769701E-03
(PID.TID 0000.0001) %MON dynstat_vvel_del2            =   1.2182179676272E-04
(PID.TID 0000.0001) %MON dynstat_wvel_max             =   1.4684553476772E-04
(PID.TID 0000.0001) %MON dynstat_wvel_min             =  -1.4533827581838E-04
(PID.TID 0000.0001) %MON dynstat_wvel_mean            =   1.1705806333549E-21
(PID.TID 0000.0001) %MON dynstat_wvel_sd              =   5.3357699550695E-05
(PID.TID 0000.0001) %MON dynstat_wvel_del2            =   7.3620302165067E-06
(PID.TID 0000.0001) %MON dynstat_theta_max            =   1.7020391872690E+01
(PID.TID 0000.0001) %MON dynstat_theta_min            =   1.6979608188987E+01
(PID.TID 0000.0001) %MON dynstat_theta_mean           =   1.6999999916845E+01
(PID.TID 0000.0001) %MON dynstat_theta_sd             =   1.8680436739801E-02
(PID.TID 0000.0001) %MON dynstat_theta_del2           =   1.9601616460185E-04
(PID.TID 0000.0001) %MON dynstat_salt_max             =   1.7020387109310E+01
(PID.TID 0000.0001) %MON dynstat_salt_min             =   1.6979612982850E+01
(PID.TID 0000.0001) %MON dynstat_salt_mean            =   1.7000000005832E+01
(PID.TID 0000.0001) %MON dynstat_salt_sd              =   1.8684010809699E-02
(PID.TID 0000.0001) %MON dynstat_salt_del2            =   1.9360913260194E-04
(PID.TID 0000.0001) %MON advcfl_uvel_max              =   3.7462009309191E-02
(PID.TID 0000.0001) %MON advcfl_vvel_max              =   9.9964020932960E-03
(PID.TID 0000.0001) %MON advcfl_wvel_max              =   3.5242928344253E-02
(PID.TID 0000.0001) %MON advcfl_W_hf_max              =   3.5242928344253E-02
(PID.TID 0000.0001) %MON pe_b_mean                    =   3.4184502666976E-09
(PID.TID 0000.0001) %MON ke_max                       =   4.9384822691915E-04
(PID.TID 0000.0001) %MON ke_mean                      =   3.2498309221586E-05
(PID.TID 0000.0001) %MON ke_vol                       =   2.5000000000000E+11
(PID.TID 0000.0001) %MON vort_r_min                   =  -9.1747581550999E-06
(PID.TID 0000.0001) %MON vort_r_max                   =   1.0406601130466E-05
(PID.TID 0000.0001) %MON vort_a_mean                  =   7.2900000000001E-05
(PID.TID 0000.0001) %MON vort_a_sd                    =   2.6191134660709E-06
(PID.TID 0000.0001) %MON vort_p_mean                  =   7.7363265306123E-05
(PID.TID 0000.0001) %MON vort_p_sd                    =   3.1039895282472E-05
(PID.TID 0000.0001) %MON surfExpan_theta_mean         =  -4.3152368055175E-13
(PID.TID 0000.0001) %MON surfExpan_salt_mean          =  -1.0915253753199E-16
(PID.TID 0000.0001) // =======================================================
(PID.TID 0000.0001) // End MONITOR dynamic field statistics
(PID.TID 0000.0001) // =======================================================
 cg2d: Sum(rhs),rhsMax =   1.88690426131122E-13  7.81894483062210E-04
(PID.TID 0000.0001)                    cg2d_init_res =    6.26153128970516E-02
(PID.TID 0000.0001)                       cg2d_iters =    78
(PID.TID 0000.0001)                         cg2d_res =    8.40846568580817E-12
(PID.TID 0000.0001) // =======================================================
(PID.TID 0000.0001) // Begin MONITOR dynamic field statistics
(PID.TID 0000.0001) // =======================================================
(PID.TID 0000.0001) %MON time_tsnumber                =                    47
(PID.TID 0000.0001) %MON time_secondsf                =   5.6400000000000E+04
(PID.TID 0000.0001) %MON dynstat_eta_max              =   3.9878209420961E-04
(PID.TID 0000.0001) %MON dynstat_eta_min              =  -4.1669252651493E-04
(PID.TID 0000.0001) %MON dynstat_eta_mean             =  -4.0372175951764E-17
(PID.TID 0000.0001) %MON dynstat_eta_sd               =   3.7333479704520E-04
(PID.TID 0000.0001) %MON dynstat_eta_del2             =   3.8857773918707E-06
(PID.TID 0000.0001) %MON dynstat_uvel_max             =   3.0309608861120E-02
(PID.TID 0000.0001) %MON dynstat_uvel_min             =  -3.0385460724819E-02
(PID.TID 0000.0001) %MON dynstat_uvel_mean            =  -1.0817429682947E-06
(PID.TID 0000.0001) %MON dynstat_uvel_sd              =   7.3728427988168E-03
(PID.TID 0000.0001) %MON dynstat_uvel_del2            =   2.1424890780095E-04
(PID.TID 0000.0001) %MON dynstat_vvel_max             =   8.7636346026879E-03
(PID.TID 0000.0001) %MON dynstat_vvel_min             =  -8.7507832665025E-03
(PID.TID 0000.0001) %MON dynstat_vvel_mean            =  -1.7534814825285E-10
(PID.TID 0000.0001) %MON dynstat_vvel_sd              =   2.8680623366070E-03
(PID.TID 0000.0001) %MON dynstat_vvel_del2            =   1.2249285187930E-04
(PID.TID 0000.0001) %MON dynstat_wvel_max             =   1.5459132527019E-04
(PID.TID 0000.0001) %MON dynstat_wvel_min             =  -1.5313612544854E-04
(PID.TID 0000.0001) %MON dynstat_wvel_mean            =   5.2104370568906E-22
(PID.TID 0000.0001) %MON dynstat_wvel_sd              =   5.4561536125223E-05
(PID.TID 0000.0001) %MON dynstat_wvel_del2            =   7.3470550523664E-06
(PID.TID 0000.0001) %MON dynstat_theta_max            =   1.7020391872688E+01
(PID.TID 0000.0001) %MON dynstat_theta_min            =   1.6979608188987E+01
(PID.TID 0000.0001) %MON dynstat_theta_mean           =   1.6999999916848E+01
(PID.TID 0000.0001) %MON dynstat_theta_sd             =   1.8680385516812E-02
(PID.TID 0000.0001) %MON dynstat_theta_del2           =   1.9603376190329E-04
(PID.TID 0000.0001) %MON dynstat_salt_max             =   1.7020387109310E+01
(PID.TID 0000.0001) %MON dynstat_salt_min             =   1.6979612982850E+01
(PID.TID 0000.0001) %MON dynstat_salt_mean            =   1.7000000005832E+01
(PID.TID 0000.0001) %MON dynstat_salt_sd              =   1.8683956898224E-02
(PID.TID 0000.0001) %MON dynstat_salt_del2            =   1.9394938686031E-04
(PID.TID 0000.0001) %MON advcfl_uvel_max              =   3.6462552869783E-02
(PID.TID 0000.0001) %MON advcfl_vvel_max              =   1.0516361523225E-02
(PID.TID 0000.0001) %MON advcfl_wvel_max              =   3.7101918064846E-02
(PID.TID 0000.0001) %MON advcfl_W_hf_max              =   3.7101918064846E-02
(PID.TID 0000.0001) %MON pe_b_mean                    =   3.4182668035443E-09
(PID.TID 0000.0001) %MON ke_max                       =   4.7085933366077E-04
(PID.TID 0000.0001) %MON ke_mean                      =   3.1127781205115E-05
(PID.TID 0000.0001) %MON ke_vol                       =   2.5000000000000E+11
(PID.TID 0000.0001) %MON vort_r_min                   =  -9.0674687422046E-06
(PID.TID 0000.0001) %MON vort_r_max                   =   1.0230464989520E-05
(PID.TID 0000.0001) %MON vort_a_mean                  =   7.2899999999999E-05
(PID.TID 0000.0001) %MON vort_a_sd                    =   2.5639886783198E-06
(PID.TID 0000.0001) %MON vort_p_mean                  =   7.7363265306122E-05
(PID.TID 0000.0001) %MON vort_p_sd                    =   3.1035011110223E-05
(PID.TID 0000.0001) %MON surfExpan_theta_mean         =  -4.5591947563031E-13
(PID.TID 0000.0001) %MON surfExpan_salt_mean          =  -3.5105380871204E-16
(PID.TID 0000.0001) // =======================================================
(PID.TID 0000.0001) // End MONITOR dynamic field statistics
(PID.TID 0000.0001) // =======================================================
 cg2d: Sum(rhs),rhsMax =   1.93156634350350E-13  7.83830343633046E-04
(PID.TID 0000.0001)                    cg2d_init_res =    6.83372057842946E-02
(PID.TID 0000.0001)                       cg2d_iters =    77
(PID.TID 0000.0001)                         cg2d_res =    7.15288887742756E-12
(PID.TID 0000.0001) // =======================================================
(PID.TID 0000.0001) // Begin MONITOR dynamic field statistics
(PID.TID 0000.0001) // =======================================================
(PID.TID 0000.0001) %MON time_tsnumber                =                    48
(PID.TID 0000.0001) %MON time_secondsf                =   5.7600000000000E+04
(PID.TID 0000.0001) %MON dynstat_eta_max              =   3.9910739680775E-04
(PID.TID 0000.0001) %MON dynstat_eta_min              =  -4.1636752240629E-04
(PID.TID 0000.0001) %MON dynstat_eta_mean             =  -3.5825969700309E-17
(PID.TID 0000.0001) %MON dynstat_eta_sd               =   3.7332586953415E-04
(PID.TID 0000.0001) %MON dynstat_eta_del2             =   3.8838231562144E-06
(PID.TID 0000.0001) %MON dynstat_uvel_max             =   2.9433880111082E-02
(PID.TID 0000.0001) %MON dynstat_uvel_min             =  -2.9505554944450E-02
(PID.TID 0000.0001) %MON dynstat_uvel_mean            =  -1.0800812775770E-06
(PID.TID 0000.0001) %MON dynstat_uvel_sd              =   7.1096727334030E-03
(PID.TID 0000.0001) %MON dynstat_uvel_del2            =   2.1003745818568E-04
(PID.TID 0000.0001) %MON dynstat_vvel_max             =   9.1421528446796E-03
(PID.TID 0000.0001) %MON dynstat_vvel_min             =  -9.1201318964319E-03
(PID.TID 0000.0001) %MON dynstat_vvel_mean            =  -1.9555463565684E-10
(PID.TID 0000.0001) %MON dynstat_vvel_sd              =   3.0347343923807E-03
(PID.TID 0000.0001) %MON dynstat_vvel_del2            =   1.2316831000122E-04
(PID.TID 0000.0001) %MON dynstat_wvel_max             =   1.6148090745559E-04
(PID.TID 0000.0001) %MON dynstat_wvel_min             =  -1.6005890129110E-04
(PID.TID 0000.0001) %MON dynstat_wvel_mean            =  -4.3282964978213E-21
(PID.TID 0000.0001) %MON dynstat_wvel_sd              =   5.5791713045686E-05
(PID.TID 0000.0001) %MON dynstat_wvel_del2            =   7.3351470207505E-06
(PID.TID 0000.0001) %MON dynstat_theta_max            =   1.7020391872687E+01
(PID.TID 0000.0001) %MON dynstat_theta_min            =   1.6979608188987E+01
(PID.TID 0000.0001) %MON dynstat_theta_mean           =   1.6999999916851E+01
(PID.TID 0000.0001) %MON dynstat_theta_sd             =   1.8680331045324E-02
(PID.TID 0000.0001) %MON dynstat_theta_del2           =   1.9605321054894E-04
(PID.TID 0000.0001) %MON dynstat_salt_max             =   1.7020387109310E+01
(PID.TID 0000.0001) %MON dynstat_salt_min             =   1.6979612982850E+01
(PID.TID 0000.0001) %MON dynstat_salt_mean            =   1.7000000005832E+01
(PID.TID 0000.0001) %MON dynstat_salt_sd              =   1.8683860228953E-02
(PID.TID 0000.0001) %MON dynstat_salt_del2            =   1.9474823303346E-04
(PID.TID 0000.0001) %MON advcfl_uvel_max              =   3.5406665933340E-02
(PID.TID 0000.0001) %MON advcfl_vvel_max              =   1.0970583413616E-02
(PID.TID 0000.0001) %MON advcfl_wvel_max              =   3.8755417789341E-02
(PID.TID 0000.0001) %MON advcfl_W_hf_max              =   3.8755417789341E-02
(PID.TID 0000.0001) %MON pe_b_mean                    =   3.4181033242756E-09
(PID.TID 0000.0001) %MON ke_max                       =   4.4725574577648E-04
(PID.TID 0000.0001) %MON ke_mean                      =   2.9694337930838E-05
(PID.TID 0000.0001) %MON ke_vol                       =   2.5000000000000E+11
(PID.TID 0000.0001) %MON vort_r_min                   =  -8.9506476399123E-06
(PID.TID 0000.0001) %MON vort_r_max                   =   1.0043767153718E-05
(PID.TID 0000.0001) %MON vort_a_mean                  =   7.2900000000000E-05
(PID.TID 0000.0001) %MON vort_a_sd                    =   2.5060817763044E-06
(PID.TID 0000.0001) %MON vort_p_mean                  =   7.7363265306123E-05
(PID.TID 0000.0001) %MON vort_p_sd                    =   3.1029991577650E-05
(PID.TID 0000.0001) %MON surfExpan_theta_mean         =  -4.6388847821629E-13
(PID.TID 0000.0001) %MON surfExpan_salt_mean          =  -1.3922966247896E-16
(PID.TID 0000.0001) // =======================================================
(PID.TID 0000.0001) // End MONITOR dynamic field statistics
(PID.TID 0000.0001) // =======================================================
 cg2d: Sum(rhs),rhsMax =   3.09978008972839E-13  7.85628098284126E-04
(PID.TID 0000.0001)                    cg2d_init_res =    7.37657342611989E-02
(PID.TID 0000.0001)                       cg2d_iters =    82
(PID.TID 0000.0001)                         cg2d_res =    7.95548401104936E-12
(PID.TID 0000.0001) // =======================================================
(PID.TID 0000.0001) // Begin MONITOR dynamic field statistics
(PID.TID 0000.0001) // =======================================================
(PID.TID 0000.0001) %MON time_tsnumber                =                    49
(PID.TID 0000.0001) %MON time_secondsf                =   5.8800000000000E+04
(PID.TID 0000.0001) %MON dynstat_eta_max              =   3.9943830423521E-04
(PID.TID 0000.0001) %MON dynstat_eta_min              =  -4.1603696543007E-04
(PID.TID 0000.0001) %MON dynstat_eta_mean             =  -3.5473648298257E-17
(PID.TID 0000.0001) %MON dynstat_eta_sd               =   3.7331871974980E-04
(PID.TID 0000.0001) %MON dynstat_eta_del2             =   3.8818705417200E-06
(PID.TID 0000.0001) %MON dynstat_uvel_max             =   2.8517941307379E-02
(PID.TID 0000.0001) %MON dynstat_uvel_min             =  -2.8585869204113E-02
(PID.TID 0000.0001) %MON dynstat_uvel_mean            =  -1.0780859181620E-06
(PID.TID 0000.0001) %MON dynstat_uvel_sd              =   6.8348956256595E-03
(PID.TID 0000.0001) %MON dynstat_uvel_del2            =   2.0582223839499E-04
(PID.TID 0000.0001) %MON dynstat_vvel_max             =   9.4632827039548E-03
(PID.TID 0000.0001) %MON dynstat_vvel_min             =  -9.4323761142117E-03
(PID.TID 0000.0001) %MON dynstat_vvel_mean            =  -2.1801596740157E-10
(PID.TID 0000.0001) %MON dynstat_vvel_sd              =   3.1789773867193E-03
(PID.TID 0000.0001) %MON dynstat_vvel_del2            =   1.2376342124239E-04
(PID.TID 0000.0001) %MON dynstat_wvel_max             =   1.6746438588284E-04
(PID.TID 0000.0001) %MON dynstat_wvel_min             =  -1.6605936429008E-04
(PID.TID 0000.0001) %MON dynstat_wvel_mean            =   8.3513117796241E-22
(PID.TID 0000.0001) %MON dynstat_wvel_sd              =   5.6969699226923E-05
(PID.TID 0000.0001) %MON dynstat_wvel_del2            =   7.3258136446049E-06
(PID.TID 0000.0001) %MON dynstat_theta_max            =   1.7020391872685E+01
(PID.TID 0000.0001) %MON dynstat_theta_min            =   1.6979608188987E+01
(PID.TID 0000.0001) %MON dynstat_theta_mean           =   1.6999999916854E+01
(PID.TID 0000.0001) %MON dynstat_theta_sd             =   1.8680273660428E-02
(PID.TID 0000.0001) %MON dynstat_theta_del2           =   1.9607391899532E-04
(PID.TID 0000.0001) %MON dynstat_salt_max             =   1.7020387109310E+01
(PID.TID 0000.0001) %MON dynstat_salt_min             =   1.6979612982850E+01
(PID.TID 0000.0001) %MON dynstat_salt_mean            =   1.7000000005832E+01
(PID.TID 0000.0001) %MON dynstat_salt_sd              =   1.8683674878828E-02
(PID.TID 0000.0001) %MON dynstat_salt_del2            =   1.9494623506154E-04
(PID.TID 0000.0001) %MON advcfl_uvel_max              =   3.4303043044935E-02
(PID.TID 0000.0001) %MON advcfl_vvel_max              =   1.1355939244746E-02
(PID.TID 0000.0001) %MON advcfl_wvel_max              =   4.0191452611883E-02
(PID.TID 0000.0001) %MON advcfl_W_hf_max              =   4.0191452611883E-02
(PID.TID 0000.0001) %MON pe_b_mean                    =   3.4179724012959E-09
(PID.TID 0000.0001) %MON ke_max                       =   4.2320415618946E-04
(PID.TID 0000.0001) %MON ke_mean                      =   2.8208730356095E-05
(PID.TID 0000.0001) %MON ke_vol                       =   2.5000000000000E+11
(PID.TID 0000.0001) %MON vort_r_min                   =  -8.8257526703530E-06
(PID.TID 0000.0001) %MON vort_r_max                   =   9.8481505920494E-06
(PID.TID 0000.0001) %MON vort_a_mean                  =   7.2900000000000E-05
(PID.TID 0000.0001) %MON vort_a_sd                    =   2.4459974044343E-06
(PID.TID 0000.0001) %MON vort_p_mean                  =   7.7363265306122E-05
(PID.TID 0000.0001) %MON vort_p_sd                    =   3.1024903738919E-05
(PID.TID 0000.0001) %MON surfExpan_theta_mean         =  -4.5459532104826E-13
(PID.TID 0000.0001) %MON surfExpan_salt_mean          =   9.8325297706749E-16
(PID.TID 0000.0001) // =======================================================
(PID.TID 0000.0001) // End MONITOR dynamic field statistics
(PID.TID 0000.0001) // =======================================================
 cg2d: Sum(rhs),rhsMax =   2.89863022907150E-13  7.87278598588850E-04
(PID.TID 0000.0001)                    cg2d_init_res =    7.93460873052888E-02
(PID.TID 0000.0001)                       cg2d_iters =    81
(PID.TID 0000.0001)                         cg2d_res =    8.90619861804436E-12
(PID.TID 0000.0001) // =======================================================
(PID.TID 0000.0001) // Begin MONITOR dynamic field statistics
(PID.TID 0000.0001) // =======================================================
(PID.TID 0000.0001) %MON time_tsnumber                =                    50
(PID.TID 0000.0001) %MON time_secondsf                =   6.0000000000000E+04
(PID.TID 0000.0001) %MON dynstat_eta_max              =   3.9976549203275E-04
(PID.TID 0000.0001) %MON dynstat_eta_min              =  -4.1571024774490E-04
(PID.TID 0000.0001) %MON dynstat_eta_mean             =  -4.1733547672673E-17
(PID.TID 0000.0001) %MON dynstat_eta_sd               =   3.7331284572432E-04
(PID.TID 0000.0001) %MON dynstat_eta_del2             =   3.8799491712425E-06
(PID.TID 0000.0001) %MON dynstat_uvel_max             =   2.7569181242598E-02
(PID.TID 0000.0001) %MON dynstat_uvel_min             =  -2.7633816215285E-02
(PID.TID 0000.0001) %MON dynstat_uvel_mean            =  -1.0757859012294E-06
(PID.TID 0000.0001) %MON dynstat_uvel_sd              =   6.5509712235995E-03
(PID.TID 0000.0001) %MON dynstat_uvel_del2            =   2.0167222403821E-04
(PID.TID 0000.0001) %MON dynstat_vvel_max             =   9.7248505469305E-03
(PID.TID 0000.0001) %MON dynstat_vvel_min             =  -9.6853666123030E-03
(PID.TID 0000.0001) %MON dynstat_vvel_mean            =  -2.2535377173669E-10
(PID.TID 0000.0001) %MON dynstat_vvel_sd              =   3.2991051347556E-03
(PID.TID 0000.0001) %MON dynstat_vvel_del2            =   1.2426770577987E-04
(PID.TID 0000.0001) %MON dynstat_wvel_max             =   1.7253792163755E-04
(PID.TID 0000.0001) %MON dynstat_wvel_min             =  -1.7112522293721E-04
(PID.TID 0000.0001) %MON dynstat_wvel_mean            =   7.0893351327972E-22
(PID.TID 0000.0001) %MON dynstat_wvel_sd              =   5.8030970011349E-05
(PID.TID 0000.0001) %MON dynstat_wvel_del2            =   7.3185764867445E-06
(PID.TID 0000.0001) %MON dynstat_theta_max            =   1.7020391872684E+01
(PID.TID 0000.0001) %MON dynstat_theta_min            =   1.6979608188987E+01
(PID.TID 0000.0001) %MON dynstat_theta_mean           =   1.6999999916857E+01
(PID.TID 0000.0001) %MON dynstat_theta_sd             =   1.8680213999159E-02
(PID.TID 0000.0001) %MON dynstat_theta_del2           =   1.9609529139725E-04
(PID.TID 0000.0001) %MON dynstat_salt_max             =   1.7020387109310E+01
(PID.TID 0000.0001) %MON dynstat_salt_min             =   1.6979612982850E+01
(PID.TID 0000.0001) %MON dynstat_salt_mean            =   1.7000000005832E+01
(PID.TID 0000.0001) %MON dynstat_salt_sd              =   1.8683585447046E-02
(PID.TID 0000.0001) %MON dynstat_salt_del2            =   1.9536941693510E-04
(PID.TID 0000.0001) %MON advcfl_uvel_max              =   3.3160579458342E-02
(PID.TID 0000.0001) %MON advcfl_vvel_max              =   1.1669820656317E-02
(PID.TID 0000.0001) %MON advcfl_wvel_max              =   4.1409101193011E-02
(PID.TID 0000.0001) %MON advcfl_W_hf_max              =   4.1409101193011E-02
(PID.TID 0000.0001) %MON pe_b_mean                    =   3.4178648411980E-09
(PID.TID 0000.0001) %MON ke_max                       =   3.9887301361400E-04
(PID.TID 0000.0001) %MON ke_mean                      =   2.6681978016154E-05
(PID.TID 0000.0001) %MON ke_vol                       =   2.5000000000000E+11
(PID.TID 0000.0001) %MON vort_r_min                   =  -8.6942395823598E-06
(PID.TID 0000.0001) %MON vort_r_max                   =   9.6452869975318E-06
(PID.TID 0000.0001) %MON vort_a_mean                  =   7.2900000000000E-05
(PID.TID 0000.0001) %MON vort_a_sd                    =   2.3843445767633E-06
(PID.TID 0000.0001) %MON vort_p_mean                  =   7.7363265306123E-05
(PID.TID 0000.0001) %MON vort_p_sd                    =   3.1019810665822E-05
(PID.TID 0000.0001) %MON surfExpan_theta_mean         =  -4.4700743515366E-13
(PID.TID 0000.0001) %MON surfExpan_salt_mean          =  -6.8132446558529E-16
(PID.TID 0000.0001) // =======================================================
(PID.TID 0000.0001) // End MONITOR dynamic field statistics
(PID.TID 0000.0001) // =======================================================
 cg2d: Sum(rhs),rhsMax =   1.69050429037199E-13  7.88773883496380E-04
(PID.TID 0000.0001)                    cg2d_init_res =    8.06292831198191E-02
(PID.TID 0000.0001)                       cg2d_iters =    77
(PID.TID 0000.0001)                         cg2d_res =    6.99732189854797E-12
(PID.TID 0000.0001) // =======================================================
(PID.TID 0000.0001) // Begin MONITOR dynamic field statistics
(PID.TID 0000.0001) // =======================================================
(PID.TID 0000.0001) %MON time_tsnumber                =                    51
(PID.TID 0000.0001) %MON time_secondsf                =   6.1200000000000E+04
(PID.TID 0000.0001) %MON dynstat_eta_max              =   4.0008645342138E-04
(PID.TID 0000.0001) %MON dynstat_eta_min              =  -4.1538973907340E-04
(PID.TID 0000.0001) %MON dynstat_eta_mean             =  -2.9104384918210E-17
(PID.TID 0000.0001) %MON dynstat_eta_sd               =   3.7330885721360E-04
(PID.TID 0000.0001) %MON dynstat_eta_del2             =   3.8780819461803E-06
(PID.TID 0000.0001) %MON dynstat_uvel_max             =   2.6595110780530E-02
(PID.TID 0000.0001) %MON dynstat_uvel_min             =  -2.6656923644824E-02
(PID.TID 0000.0001) %MON dynstat_uvel_mean            =  -1.0732059943486E-06
(PID.TID 0000.0001) %MON dynstat_uvel_sd              =   6.2604372745737E-03
(PID.TID 0000.0001) %MON dynstat_uvel_del2            =   1.9767059895455E-04
(PID.TID 0000.0001) %MON dynstat_vvel_max             =   9.9251003457724E-03
(PID.TID 0000.0001) %MON dynstat_vvel_min             =  -9.8773581854491E-03
(PID.TID 0000.0001) %MON dynstat_vvel_mean            =  -2.3477865570761E-10
(PID.TID 0000.0001) %MON dynstat_vvel_sd              =   3.3938507201358E-03
(PID.TID 0000.0001) %MON dynstat_vvel_del2            =   1.2464430432002E-04
(PID.TID 0000.0001) %MON dynstat_wvel_max             =   1.7664853517784E-04
(PID.TID 0000.0001) %MON dynstat_wvel_min             =  -1.7521186933151E-04
(PID.TID 0000.0001) %MON dynstat_wvel_mean            =  -3.3064775650210E-21
(PID.TID 0000.0001) %MON dynstat_wvel_sd              =   5.8923865361101E-05
(PID.TID 0000.0001) %MON dynstat_wvel_del2            =   7.3130337837944E-06
(PID.TID 0000.0001) %MON dynstat_theta_max            =   1.7020391872683E+01
(PID.TID 0000.0001) %MON dynstat_theta_min            =   1.6979608188987E+01
(PID.TID 0000.0001) %MON dynstat_theta_mean           =   1.6999999916859E+01
(PID.TID 0000.0001) %MON dynstat_theta_sd             =   1.8680152480010E-02
(PID.TID 0000.0001) %MON dynstat_theta_del2           =   1.9611678116538E-04
(PID.TID 0000.0001) %MON dynstat_salt_max             =   1.7020387109310E+01
(PID.TID 0000.0001) %MON dynstat_salt_min             =   1.6979612982850E+01
(PID.TID 0000.0001) %MON dynstat_salt_mean            =   1.7000000005832E+01
(PID.TID 0000.0001) %MON dynstat_salt_sd              =   1.8683504459580E-02
(PID.TID 0000.0001) %MON dynstat_salt_del2            =   1.9565370439311E-04
(PID.TID 0000.0001) %MON advcfl_uvel_max              =   3.1988308373789E-02
(PID.TID 0000.0001) %MON advcfl_vvel_max              =   1.1910120414927E-02
(PID.TID 0000.0001) %MON advcfl_wvel_max              =   4.2395648442681E-02
(PID.TID 0000.0001) %MON advcfl_W_hf_max              =   4.2395648442681E-02
(PID.TID 0000.0001) %MON pe_b_mean                    =   3.4177918079878E-09
(PID.TID 0000.0001) %MON ke_max                       =   3.7443141013369E-04
(PID.TID 0000.0001) %MON ke_mean                      =   2.5125284911393E-05
(PID.TID 0000.0001) %MON ke_vol                       =   2.5000000000000E+11
(PID.TID 0000.0001) %MON vort_r_min                   =  -8.5575452454671E-06
(PID.TID 0000.0001) %MON vort_r_max                   =   9.4368180512417E-06
(PID.TID 0000.0001) %MON vort_a_mean                  =   7.2900000000000E-05
(PID.TID 0000.0001) %MON vort_a_sd                    =   2.3217301678042E-06
(PID.TID 0000.0001) %MON vort_p_mean                  =   7.7363265306123E-05
(PID.TID 0000.0001) %MON vort_p_sd                    =   3.1014770493198E-05
(PID.TID 0000.0001) %MON surfExpan_theta_mean         =  -4.2158762300056E-13
(PID.TID 0000.0001) %MON surfExpan_salt_mean          =  -2.1881009446760E-16
(PID.TID 0000.0001) // =======================================================
(PID.TID 0000.0001) // End MONITOR dynamic field statistics
(PID.TID 0000.0001) // =======================================================
 cg2d: Sum(rhs),rhsMax =   1.84018870020425E-13  7.90106454333902E-04
(PID.TID 0000.0001)                    cg2d_init_res =    8.20876161863324E-02
(PID.TID 0000.0001)                       cg2d_iters =    79
(PID.TID 0000.0001)                         cg2d_res =    6.56939717671883E-12
(PID.TID 0000.0001) // =======================================================
(PID.TID 0000.0001) // Begin MONITOR dynamic field statistics
(PID.TID 0000.0001) // =======================================================
(PID.TID 0000.0001) %MON time_tsnumber                =                    52
(PID.TID 0000.0001) %MON time_secondsf                =   6.2400000000000E+04
(PID.TID 0000.0001) %MON dynstat_eta_max              =   4.0039452000918E-04
(PID.TID 0000.0001) %MON dynstat_eta_min              =  -4.1508220949446E-04
(PID.TID 0000.0001) %MON dynstat_eta_mean             =  -1.4405319641586E-17
(PID.TID 0000.0001) %MON dynstat_eta_sd               =   3.7330653794886E-04
(PID.TID 0000.0001) %MON dynstat_eta_del2             =   3.8762854710855E-06
(PID.TID 0000.0001) %MON dynstat_uvel_max             =   2.5603310089455E-02
(PID.TID 0000.0001) %MON dynstat_uvel_min             =  -2.5662779367421E-02
(PID.TID 0000.0001) %MON dynstat_uvel_mean            =  -1.0703752027092E-06
(PID.TID 0000.0001) %MON dynstat_uvel_sd              =   5.9658924631380E-03
(PID.TID 0000.0001) %MON dynstat_uvel_del2            =   1.9390723689351E-04
(PID.TID 0000.0001) %MON dynstat_vvel_max             =   1.0062786034077E-02
(PID.TID 0000.0001) %MON dynstat_vvel_min             =  -1.0007102350471E-02
(PID.TID 0000.0001) %MON dynstat_vvel_mean            =  -2.3716128691163E-10
(PID.TID 0000.0001) %MON dynstat_vvel_sd              =   3.4623075156173E-03
(PID.TID 0000.0001) %MON dynstat_vvel_del2            =   1.2491690951295E-04
(PID.TID 0000.0001) %MON dynstat_wvel_max             =   1.7978178805622E-04
(PID.TID 0000.0001) %MON dynstat_wvel_min             =  -1.7832501699175E-04
(PID.TID 0000.0001) %MON dynstat_wvel_mean            =   7.3699659942487E-22
(PID.TID 0000.0001) %MON dynstat_wvel_sd              =   5.9609143924010E-05
(PID.TID 0000.0001) %MON dynstat_wvel_del2            =   7.3084824745205E-06
(PID.TID 0000.0001) %MON dynstat_theta_max            =   1.7020391872683E+01
(PID.TID 0000.0001) %MON dynstat_theta_min            =   1.6979608188987E+01
(PID.TID 0000.0001) %MON dynstat_theta_mean           =   1.6999999916862E+01
(PID.TID 0000.0001) %MON dynstat_theta_sd             =   1.8680089627920E-02
(PID.TID 0000.0001) %MON dynstat_theta_del2           =   1.9613792003344E-04
(PID.TID 0000.0001) %MON dynstat_salt_max             =   1.7020387109310E+01
(PID.TID 0000.0001) %MON dynstat_salt_min             =   1.6979612982850E+01
(PID.TID 0000.0001) %MON dynstat_salt_mean            =   1.7000000005832E+01
(PID.TID 0000.0001) %MON dynstat_salt_sd              =   1.8683442596246E-02
(PID.TID 0000.0001) %MON dynstat_salt_del2            =   1.9595242082617E-04
(PID.TID 0000.0001) %MON advcfl_uvel_max              =   3.0795335240905E-02
(PID.TID 0000.0001) %MON advcfl_vvel_max              =   1.2075343240892E-02
(PID.TID 0000.0001) %MON advcfl_wvel_max              =   4.3147629133493E-02
(PID.TID 0000.0001) %MON advcfl_W_hf_max              =   4.3147629133493E-02
(PID.TID 0000.0001) %MON pe_b_mean                    =   3.4177493405282E-09
(PID.TID 0000.0001) %MON ke_max                       =   3.5004786767460E-04
(PID.TID 0000.0001) %MON ke_mean                      =   2.3549972213411E-05
(PID.TID 0000.0001) %MON ke_vol                       =   2.5000000000000E+11
(PID.TID 0000.0001) %MON vort_r_min                   =  -8.4170590872417E-06
(PID.TID 0000.0001) %MON vort_r_max                   =   9.2244333140613E-06
(PID.TID 0000.0001) %MON vort_a_mean                  =   7.2900000000000E-05
(PID.TID 0000.0001) %MON vort_a_sd                    =   2.2587535010698E-06
(PID.TID 0000.0001) %MON vort_p_mean                  =   7.7363265306123E-05
(PID.TID 0000.0001) %MON vort_p_sd                    =   3.1009835758431E-05
(PID.TID 0000.0001) %MON surfExpan_theta_mean         =  -3.9352306582910E-13
(PID.TID 0000.0001) %MON surfExpan_salt_mean          =  -5.1883430503489E-16
(PID.TID 0000.0001) // =======================================================
(PID.TID 0000.0001) // End MONITOR dynamic field statistics
(PID.TID 0000.0001) // =======================================================
 cg2d: Sum(rhs),rhsMax =   1.16026437589622E-13  7.91268130832254E-04
(PID.TID 0000.0001)                    cg2d_init_res =    8.22541974651512E-02
(PID.TID 0000.0001)                       cg2d_iters =    76
(PID.TID 0000.0001)                         cg2d_res =    9.17066595434050E-12
(PID.TID 0000.0001) // =======================================================
(PID.TID 0000.0001) // Begin MONITOR dynamic field statistics
(PID.TID 0000.0001) // =======================================================
(PID.TID 0000.0001) %MON time_tsnumber                =                    53
(PID.TID 0000.0001) %MON time_secondsf                =   6.3600000000000E+04
(PID.TID 0000.0001) %MON dynstat_eta_max              =   4.0068488464142E-04
(PID.TID 0000.0001) %MON dynstat_eta_min              =  -4.1479240025612E-04
(PID.TID 0000.0001) %MON dynstat_eta_mean             =  -2.0478412630642E-17
(PID.TID 0000.0001) %MON dynstat_eta_sd               =   3.7330628263269E-04
(PID.TID 0000.0001) %MON dynstat_eta_del2             =   3.8745698290487E-06
(PID.TID 0000.0001) %MON dynstat_uvel_max             =   2.4601372316884E-02
(PID.TID 0000.0001) %MON dynstat_uvel_min             =  -2.4658981888309E-02
(PID.TID 0000.0001) %MON dynstat_uvel_mean            =  -1.0673188656524E-06
(PID.TID 0000.0001) %MON dynstat_uvel_sd              =   5.6699762698147E-03
(PID.TID 0000.0001) %MON dynstat_uvel_del2            =   1.9040233603541E-04
(PID.TID 0000.0001) %MON dynstat_vvel_max             =   1.0137124292159E-02
(PID.TID 0000.0001) %MON dynstat_vvel_min             =  -1.0073803947062E-02
(PID.TID 0000.0001) %MON dynstat_vvel_mean            =  -2.4299479216820E-10
(PID.TID 0000.0001) %MON dynstat_vvel_sd              =   3.5038910509164E-03
(PID.TID 0000.0001) %MON dynstat_vvel_del2            =   1.2504952727337E-04
(PID.TID 0000.0001) %MON dynstat_wvel_max             =   1.8194881972913E-04
(PID.TID 0000.0001) %MON dynstat_wvel_min             =  -1.8045923797008E-04
(PID.TID 0000.0001) %MON dynstat_wvel_mean            =   2.4903634759207E-21
(PID.TID 0000.0001) %MON dynstat_wvel_sd              =   6.0058796439830E-05
(PID.TID 0000.0001) %MON dynstat_wvel_del2            =   7.3040508664896E-06
(PID.TID 0000.0001) %MON dynstat_theta_max            =   1.7020391872683E+01
(PID.TID 0000.0001) %MON dynstat_theta_min            =   1.6979608188987E+01
(PID.TID 0000.0001) %MON dynstat_theta_mean           =   1.6999999916864E+01
(PID.TID 0000.0001) %MON dynstat_theta_sd             =   1.8680025887389E-02
(PID.TID 0000.0001) %MON dynstat_theta_del2           =   1.9615834197859E-04
(PID.TID 0000.0001) %MON dynstat_salt_max             =   1.7020387109310E+01
(PID.TID 0000.0001) %MON dynstat_salt_min             =   1.6979612982850E+01
(PID.TID 0000.0001) %MON dynstat_salt_mean            =   1.7000000005832E+01
(PID.TID 0000.0001) %MON dynstat_salt_sd              =   1.8683343813207E-02
(PID.TID 0000.0001) %MON dynstat_salt_del2            =   1.9646790109099E-04
(PID.TID 0000.0001) %MON advcfl_uvel_max              =   2.9590778265971E-02
(PID.TID 0000.0001) %MON advcfl_vvel_max              =   1.2164549150591E-02
(PID.TID 0000.0001) %MON advcfl_wvel_max              =   4.3667716734991E-02
(PID.TID 0000.0001) %MON advcfl_W_hf_max              =   4.3667716734991E-02
(PID.TID 0000.0001) %MON pe_b_mean                    =   3.4177446655158E-09
(PID.TID 0000.0001) %MON ke_max                       =   3.2588926310291E-04
(PID.TID 0000.0001) %MON ke_mean                      =   2.1967397218128E-05
(PID.TID 0000.0001) %MON ke_vol                       =   2.5000000000000E+11
(PID.TID 0000.0001) %MON vort_r_min                   =  -8.2741301171186E-06
(PID.TID 0000.0001) %MON vort_r_max                   =   9.0097423834461E-06
(PID.TID 0000.0001) %MON vort_a_mean                  =   7.2900000000000E-05
(PID.TID 0000.0001) %MON vort_a_sd                    =   2.1959989085781E-06
(PID.TID 0000.0001) %MON vort_p_mean                  =   7.7363265306122E-05
(PID.TID 0000.0001) %MON vort_p_sd                    =   3.1005052776350E-05
(PID.TID 0000.0001) %MON surfExpan_theta_mean         =  -3.5301207383713E-13
(PID.TID 0000.0001) %MON surfExpan_salt_mean          =  -3.6725188260528E-16
(PID.TID 0000.0001) // =======================================================
(PID.TID 0000.0001) // End MONITOR dynamic field statistics
(PID.TID 0000.0001) // =======================================================
 cg2d: Sum(rhs),rhsMax =   1.53195056466771E-14  7.92300078633826E-04
(PID.TID 0000.0001)                    cg2d_init_res =    8.20775734512664E-02
(PID.TID 0000.0001)                       cg2d_iters =    75
(PID.TID 0000.0001)                         cg2d_res =    8.19494295625301E-12
(PID.TID 0000.0001) // =======================================================
(PID.TID 0000.0001) // Begin MONITOR dynamic field statistics
(PID.TID 0000.0001) // =======================================================
(PID.TID 0000.0001) %MON time_tsnumber                =                    54
(PID.TID 0000.0001) %MON time_secondsf                =   6.4800000000000E+04
(PID.TID 0000.0001) %MON dynstat_eta_max              =   4.0095249420380E-04
(PID.TID 0000.0001) %MON dynstat_eta_min              =  -4.1452540160468E-04
(PID.TID 0000.0001) %MON dynstat_eta_mean             =  -1.7752624001943E-17
(PID.TID 0000.0001) %MON dynstat_eta_sd               =   3.7330786722939E-04
(PID.TID 0000.0001) %MON dynstat_eta_del2             =   3.8729394325150E-06
(PID.TID 0000.0001) %MON dynstat_uvel_max             =   2.3596852553638E-02
(PID.TID 0000.0001) %MON dynstat_uvel_min             =  -2.3653085129682E-02
(PID.TID 0000.0001) %MON dynstat_uvel_mean            =  -1.0640629990819E-06
(PID.TID 0000.0001) %MON dynstat_uvel_sd              =   5.3753471911655E-03
(PID.TID 0000.0001) %MON dynstat_uvel_del2            =   1.8716446553598E-04
(PID.TID 0000.0001) %MON dynstat_vvel_max             =   1.0147769594001E-02
(PID.TID 0000.0001) %MON dynstat_vvel_min             =  -1.0077101771496E-02
(PID.TID 0000.0001) %MON dynstat_vvel_mean            =  -2.4403192228962E-10
(PID.TID 0000.0001) %MON dynstat_vvel_sd              =   3.5183055913727E-03
(PID.TID 0000.0001) %MON dynstat_vvel_del2            =   1.2502862867003E-04
(PID.TID 0000.0001) %MON dynstat_wvel_max             =   1.8315340671273E-04
(PID.TID 0000.0001) %MON dynstat_wvel_min             =  -1.8162052169766E-04
(PID.TID 0000.0001) %MON dynstat_wvel_mean            =  -1.5015613890522E-21
(PID.TID 0000.0001) %MON dynstat_wvel_sd              =   6.0254058061374E-05
(PID.TID 0000.0001) %MON dynstat_wvel_del2            =   7.2991408527390E-06
(PID.TID 0000.0001) %MON dynstat_theta_max            =   1.7020391872683E+01
(PID.TID 0000.0001) %MON dynstat_theta_min            =   1.6979608188987E+01
(PID.TID 0000.0001) %MON dynstat_theta_mean           =   1.6999999916865E+01
(PID.TID 0000.0001) %MON dynstat_theta_sd             =   1.8679961497042E-02
(PID.TID 0000.0001) %MON dynstat_theta_del2           =   1.9617782349766E-04
(PID.TID 0000.0001) %MON dynstat_salt_max             =   1.7020387109310E+01
(PID.TID 0000.0001) %MON dynstat_salt_min             =   1.6979612982850E+01
(PID.TID 0000.0001) %MON dynstat_salt_mean            =   1.7000000005832E+01
(PID.TID 0000.0001) %MON dynstat_salt_sd              =   1.8682915840154E-02
(PID.TID 0000.0001) %MON dynstat_salt_del2            =   1.9807676789089E-04
(PID.TID 0000.0001) %MON advcfl_uvel_max              =   2.8383702155619E-02
(PID.TID 0000.0001) %MON advcfl_vvel_max              =   1.2177323512801E-02
(PID.TID 0000.0001) %MON advcfl_wvel_max              =   4.3956817611056E-02
(PID.TID 0000.0001) %MON advcfl_W_hf_max              =   4.3956817611056E-02
(PID.TID 0000.0001) %MON pe_b_mean                    =   3.4177736806097E-09
(PID.TID 0000.0001) %MON ke_max                       =   3.0211954558808E-04
(PID.TID 0000.0001) %MON ke_mean                      =   2.0388846911357E-05
(PID.TID 0000.0001) %MON ke_vol                       =   2.5000000000000E+11
(PID.TID 0000.0001) %MON vort_r_min                   =  -8.1300401639803E-06
(PID.TID 0000.0001) %MON vort_r_max                   =   8.7943833492857E-06
(PID.TID 0000.0001) %MON vort_a_mean                  =   7.2900000000000E-05
(PID.TID 0000.0001) %MON vort_a_sd                    =   2.1340287613247E-06
(PID.TID 0000.0001) %MON vort_p_mean                  =   7.7363265306122E-05
(PID.TID 0000.0001) %MON vort_p_sd                    =   3.1000461272444E-05
(PID.TID 0000.0001) %MON surfExpan_theta_mean         =  -3.1094499178762E-13
(PID.TID 0000.0001) %MON surfExpan_salt_mean          =  -8.0184611144649E-17
(PID.TID 0000.0001) // =======================================================
(PID.TID 0000.0001) // End MONITOR dynamic field statistics
(PID.TID 0000.0001) // =======================================================
 cg2d: Sum(rhs),rhsMax =   1.60945096226023E-13  7.93242231606347E-04
(PID.TID 0000.0001)                    cg2d_init_res =    8.47002018438521E-02
(PID.TID 0000.0001)                       cg2d_iters =    83
(PID.TID 0000.0001)                         cg2d_res =    6.01013467214797E-12
(PID.TID 0000.0001) // =======================================================
(PID.TID 0000.0001) // Begin MONITOR dynamic field statistics
(PID.TID 0000.0001) // =======================================================
(PID.TID 0000.0001) %MON time_tsnumber                =                    55
(PID.TID 0000.0001) %MON time_secondsf                =   6.6000000000000E+04
(PID.TID 0000.0001) %MON dynstat_eta_max              =   4.0119063402696E-04
(PID.TID 0000.0001) %MON dynstat_eta_min              =  -4.1428790539944E-04
(PID.TID 0000.0001) %MON dynstat_eta_mean             =  -3.2476589339470E-17
(PID.TID 0000.0001) %MON dynstat_eta_sd               =   3.7331138115148E-04
(PID.TID 0000.0001) %MON dynstat_eta_del2             =   3.8713939854469E-06
(PID.TID 0000.0001) %MON dynstat_uvel_max             =   2.2597214767174E-02
(PID.TID 0000.0001) %MON dynstat_uvel_min             =  -2.2652579467545E-02
(PID.TID 0000.0001) %MON dynstat_uvel_mean            =  -1.0606323672967E-06
(PID.TID 0000.0001) %MON dynstat_uvel_sd              =   5.0846588420729E-03
(PID.TID 0000.0001) %MON dynstat_uvel_del2            =   1.8419789214878E-04
(PID.TID 0000.0001) %MON dynstat_vvel_max             =   1.0094820171884E-02
(PID.TID 0000.0001) %MON dynstat_vvel_min             =  -1.0028895597387E-02
(PID.TID 0000.0001) %MON dynstat_vvel_mean            =  -2.4485458996547E-10
(PID.TID 0000.0001) %MON dynstat_vvel_sd              =   3.5055268279399E-03
(PID.TID 0000.0001) %MON dynstat_vvel_del2            =   1.2485287132082E-04
(PID.TID 0000.0001) %MON dynstat_wvel_max             =   1.8339897421399E-04
(PID.TID 0000.0001) %MON dynstat_wvel_min             =  -1.8182417324448E-04
(PID.TID 0000.0001) %MON dynstat_wvel_mean            =  -3.2616000849561E-21
(PID.TID 0000.0001) %MON dynstat_wvel_sd              =   6.0185177299915E-05
(PID.TID 0000.0001) %MON dynstat_wvel_del2            =   7.2939772556392E-06
(PID.TID 0000.0001) %MON dynstat_theta_max            =   1.7020391872683E+01
(PID.TID 0000.0001) %MON dynstat_theta_min            =   1.6979608188987E+01
(PID.TID 0000.0001) %MON dynstat_theta_mean           =   1.6999999916867E+01
(PID.TID 0000.0001) %MON dynstat_theta_sd             =   1.8679897236165E-02
(PID.TID 0000.0001) %MON dynstat_theta_del2           =   1.9619636314826E-04
(PID.TID 0000.0001) %MON dynstat_salt_max             =   1.7020387109310E+01
(PID.TID 0000.0001) %MON dynstat_salt_min             =   1.6979612982850E+01
(PID.TID 0000.0001) %MON dynstat_salt_mean            =   1.7000000005832E+01
(PID.TID 0000.0001) %MON dynstat_salt_sd              =   1.8682673506359E-02
(PID.TID 0000.0001) %MON dynstat_salt_del2            =   1.9855990471309E-04
(PID.TID 0000.0001) %MON advcfl_uvel_max              =   2.7183095361054E-02
(PID.TID 0000.0001) %MON advcfl_vvel_max              =   1.2113784206261E-02
(PID.TID 0000.0001) %MON advcfl_wvel_max              =   4.4015753811359E-02
(PID.TID 0000.0001) %MON advcfl_W_hf_max              =   4.4015753811359E-02
(PID.TID 0000.0001) %MON pe_b_mean                    =   3.4178380234644E-09
(PID.TID 0000.0001) %MON ke_max                       =   2.7889856191403E-04
(PID.TID 0000.0001) %MON ke_mean                      =   1.8825463136481E-05
(PID.TID 0000.0001) %MON ke_vol                       =   2.5000000000000E+11
(PID.TID 0000.0001) %MON vort_r_min                   =  -7.9860008287828E-06
(PID.TID 0000.0001) %MON vort_r_max                   =   8.5799327136214E-06
(PID.TID 0000.0001) %MON vort_a_mean                  =   7.2900000000001E-05
(PID.TID 0000.0001) %MON vort_a_sd                    =   2.0733760575747E-06
(PID.TID 0000.0001) %MON vort_p_mean                  =   7.7363265306123E-05
(PID.TID 0000.0001) %MON vort_p_sd                    =   3.0996094178850E-05
(PID.TID 0000.0001) %MON surfExpan_theta_mean         =  -2.6430660065943E-13
(PID.TID 0000.0001) %MON surfExpan_salt_mean          =  -1.2027923014569E-15
(PID.TID 0000.0001) // =======================================================
(PID.TID 0000.0001) // End MONITOR dynamic field statistics
(PID.TID 0000.0001) // =======================================================
 cg2d: Sum(rhs),rhsMax =   1.41398232098716E-13  7.94860491321175E-04
(PID.TID 0000.0001)                    cg2d_init_res =    8.44593368435338E-02
(PID.TID 0000.0001)                       cg2d_iters =    82
(PID.TID 0000.0001)                         cg2d_res =    8.77872640168001E-12
(PID.TID 0000.0001) // =======================================================
(PID.TID 0000.0001) // Begin MONITOR dynamic field statistics
(PID.TID 0000.0001) // =======================================================
(PID.TID 0000.0001) %MON time_tsnumber                =                    56
(PID.TID 0000.0001) %MON time_secondsf                =   6.7200000000000E+04
(PID.TID 0000.0001) %MON dynstat_eta_max              =   4.0140060845506E-04
(PID.TID 0000.0001) %MON dynstat_eta_min              =  -4.1407860650641E-04
(PID.TID 0000.0001) %MON dynstat_eta_mean             =  -3.2958194098875E-17
(PID.TID 0000.0001) %MON dynstat_eta_sd               =   3.7331539866279E-04
(PID.TID 0000.0001) %MON dynstat_eta_del2             =   3.8699309075467E-06
(PID.TID 0000.0001) %MON dynstat_uvel_max             =   2.1609779343412E-02
(PID.TID 0000.0001) %MON dynstat_uvel_min             =  -2.1664791735936E-02
(PID.TID 0000.0001) %MON dynstat_uvel_mean            =  -1.0570597239804E-06
(PID.TID 0000.0001) %MON dynstat_uvel_sd              =   4.8005305116600E-03
(PID.TID 0000.0001) %MON dynstat_uvel_del2            =   1.8144786054046E-04
(PID.TID 0000.0001) %MON dynstat_vvel_max             =   9.9778584669482E-03
(PID.TID 0000.0001) %MON dynstat_vvel_min             =  -9.9145950533474E-03
(PID.TID 0000.0001) %MON dynstat_vvel_mean            =  -2.2849242828055E-10
(PID.TID 0000.0001) %MON dynstat_vvel_sd              =   3.4657905679366E-03
(PID.TID 0000.0001) %MON dynstat_vvel_del2            =   1.2452910532764E-04
(PID.TID 0000.0001) %MON dynstat_wvel_max             =   1.8267054367427E-04
(PID.TID 0000.0001) %MON dynstat_wvel_min             =  -1.8104004918042E-04
(PID.TID 0000.0001) %MON dynstat_wvel_mean            =  -1.2727516217467E-21
(PID.TID 0000.0001) %MON dynstat_wvel_sd              =   5.9849552568594E-05
(PID.TID 0000.0001) %MON dynstat_wvel_del2            =   7.2885704595716E-06
(PID.TID 0000.0001) %MON dynstat_theta_max            =   1.7020391872683E+01
(PID.TID 0000.0001) %MON dynstat_theta_min            =   1.6979608188987E+01
(PID.TID 0000.0001) %MON dynstat_theta_mean           =   1.6999999916869E+01
(PID.TID 0000.0001) %MON dynstat_theta_sd             =   1.8679833507981E-02
(PID.TID 0000.0001) %MON dynstat_theta_del2           =   1.9621398401348E-04
(PID.TID 0000.0001) %MON dynstat_salt_max             =   1.7020387109310E+01
(PID.TID 0000.0001) %MON dynstat_salt_min             =   1.6979612982850E+01
(PID.TID 0000.0001) %MON dynstat_salt_mean            =   1.7000000005832E+01
(PID.TID 0000.0001) %MON dynstat_salt_sd              =   1.8682469781461E-02
(PID.TID 0000.0001) %MON dynstat_salt_del2            =   1.9936924849114E-04
(PID.TID 0000.0001) %MON advcfl_uvel_max              =   2.5997750083123E-02
(PID.TID 0000.0001) %MON advcfl_vvel_max              =   1.1973430160338E-02
(PID.TID 0000.0001) %MON advcfl_wvel_max              =   4.3840930481825E-02
(PID.TID 0000.0001) %MON advcfl_W_hf_max              =   4.3840930481825E-02
(PID.TID 0000.0001) %MON pe_b_mean                    =   3.4179115882015E-09
(PID.TID 0000.0001) %MON ke_max                       =   2.5638072323953E-04
(PID.TID 0000.0001) %MON ke_mean                      =   1.7288165200560E-05
(PID.TID 0000.0001) %MON ke_vol                       =   2.5000000000000E+11
(PID.TID 0000.0001) %MON vort_r_min                   =  -7.8431239415010E-06
(PID.TID 0000.0001) %MON vort_r_max                   =   8.3678961601500E-06
(PID.TID 0000.0001) %MON vort_a_mean                  =   7.2900000000000E-05
(PID.TID 0000.0001) %MON vort_a_sd                    =   2.0145359459808E-06
(PID.TID 0000.0001) %MON vort_p_mean                  =   7.7363265306123E-05
(PID.TID 0000.0001) %MON vort_p_sd                    =   3.0991977542969E-05
(PID.TID 0000.0001) %MON surfExpan_theta_mean         =  -2.3514704060370E-13
(PID.TID 0000.0001) %MON surfExpan_salt_mean          =  -1.0789025704221E-16
(PID.TID 0000.0001) // =======================================================
(PID.TID 0000.0001) // End MONITOR dynamic field statistics
(PID.TID 0000.0001) // =======================================================
 cg2d: Sum(rhs),rhsMax =   1.87322976141074E-13  7.96175825204712E-04
(PID.TID 0000.0001)                    cg2d_init_res =    8.33055323777530E-02
(PID.TID 0000.0001)                       cg2d_iters =    77
(PID.TID 0000.0001)                         cg2d_res =    8.94120023316636E-12
(PID.TID 0000.0001) // =======================================================
(PID.TID 0000.0001) // Begin MONITOR dynamic field statistics
(PID.TID 0000.0001) // =======================================================
(PID.TID 0000.0001) %MON time_tsnumber                =                    57
(PID.TID 0000.0001) %MON time_secondsf                =   6.8400000000000E+04
(PID.TID 0000.0001) %MON dynstat_eta_max              =   4.0158042071564E-04
(PID.TID 0000.0001) %MON dynstat_eta_min              =  -4.1389946861991E-04
(PID.TID 0000.0001) %MON dynstat_eta_mean             =  -4.1609202374726E-17
(PID.TID 0000.0001) %MON dynstat_eta_sd               =   3.7332096602183E-04
(PID.TID 0000.0001) %MON dynstat_eta_del2             =   3.8685410581551E-06
(PID.TID 0000.0001) %MON dynstat_uvel_max             =   2.0641670480521E-02
(PID.TID 0000.0001) %MON dynstat_uvel_min             =  -2.0696787599055E-02
(PID.TID 0000.0001) %MON dynstat_uvel_mean            =  -1.0533647411971E-06
(PID.TID 0000.0001) %MON dynstat_uvel_sd              =   4.5255144495141E-03
(PID.TID 0000.0001) %MON dynstat_uvel_del2            =   1.7884209002383E-04
(PID.TID 0000.0001) %MON dynstat_vvel_max             =   9.7986210669953E-03
(PID.TID 0000.0001) %MON dynstat_vvel_min             =  -9.7227933482499E-03
(PID.TID 0000.0001) %MON dynstat_vvel_mean            =  -2.2572151426505E-10
(PID.TID 0000.0001) %MON dynstat_vvel_sd              =   3.3995869264197E-03
(PID.TID 0000.0001) %MON dynstat_vvel_del2            =   1.2404688324539E-04
(PID.TID 0000.0001) %MON dynstat_wvel_max             =   1.8098402324783E-04
(PID.TID 0000.0001) %MON dynstat_wvel_min             =  -1.7929244340818E-04
(PID.TID 0000.0001) %MON dynstat_wvel_mean            =   3.2743904810745E-21
(PID.TID 0000.0001) %MON dynstat_wvel_sd              =   5.9252306752330E-05
(PID.TID 0000.0001) %MON dynstat_wvel_del2            =   7.2825660927190E-06
(PID.TID 0000.0001) %MON dynstat_theta_max            =   1.7020391872683E+01
(PID.TID 0000.0001) %MON dynstat_theta_min            =   1.6979608188987E+01
(PID.TID 0000.0001) %MON dynstat_theta_mean           =   1.6999999916870E+01
(PID.TID 0000.0001) %MON dynstat_theta_sd             =   1.8679770672610E-02
(PID.TID 0000.0001) %MON dynstat_theta_del2           =   1.9623083010207E-04
(PID.TID 0000.0001) %MON dynstat_salt_max             =   1.7020387109310E+01
(PID.TID 0000.0001) %MON dynstat_salt_min             =   1.6979612982850E+01
(PID.TID 0000.0001) %MON dynstat_salt_mean            =   1.7000000005832E+01
(PID.TID 0000.0001) %MON dynstat_salt_sd              =   1.8682236554960E-02
(PID.TID 0000.0001) %MON dynstat_salt_del2            =   2.0020954081925E-04
(PID.TID 0000.0001) %MON advcfl_uvel_max              =   2.4836145118866E-02
(PID.TID 0000.0001) %MON advcfl_vvel_max              =   1.1758345280394E-02
(PID.TID 0000.0001) %MON advcfl_wvel_max              =   4.3436165579479E-02
(PID.TID 0000.0001) %MON advcfl_W_hf_max              =   4.3436165579479E-02
(PID.TID 0000.0001) %MON pe_b_mean                    =   3.4180135335428E-09
(PID.TID 0000.0001) %MON ke_max                       =   2.3471434541558E-04
(PID.TID 0000.0001) %MON ke_mean                      =   1.5787592880905E-05
(PID.TID 0000.0001) %MON ke_vol                       =   2.5000000000000E+11
(PID.TID 0000.0001) %MON vort_r_min                   =  -7.7024535369402E-06
(PID.TID 0000.0001) %MON vort_r_max                   =   8.1597508625322E-06
(PID.TID 0000.0001) %MON vort_a_mean                  =   7.2899999999999E-05
(PID.TID 0000.0001) %MON vort_a_sd                    =   1.9579588484424E-06
(PID.TID 0000.0001) %MON vort_p_mean                  =   7.7363265306122E-05
(PID.TID 0000.0001) %MON vort_p_sd                    =   3.0988130717972E-05
(PID.TID 0000.0001) %MON surfExpan_theta_mean         =  -1.8747958416581E-13
(PID.TID 0000.0001) %MON surfExpan_salt_mean          =  -1.8071690055837E-16
(PID.TID 0000.0001) // =======================================================
(PID.TID 0000.0001) // End MONITOR dynamic field statistics
(PID.TID 0000.0001) // =======================================================
 cg2d: Sum(rhs),rhsMax =   2.34575108903207E-13  7.97482701135544E-04
(PID.TID 0000.0001)                    cg2d_init_res =    8.38364245672013E-02
(PID.TID 0000.0001)                       cg2d_iters =    76
(PID.TID 0000.0001)                         cg2d_res =    6.56266067107169E-12
(PID.TID 0000.0001) // =======================================================
(PID.TID 0000.0001) // Begin MONITOR dynamic field statistics
(PID.TID 0000.0001) // =======================================================
(PID.TID 0000.0001) %MON time_tsnumber                =                    58
(PID.TID 0000.0001) %MON time_secondsf                =   6.9600000000000E+04
(PID.TID 0000.0001) %MON dynstat_eta_max              =   4.0172878981706E-04
(PID.TID 0000.0001) %MON dynstat_eta_min              =  -4.1375181358533E-04
(PID.TID 0000.0001) %MON dynstat_eta_mean             =  -4.3285482835831E-17
(PID.TID 0000.0001) %MON dynstat_eta_sd               =   3.7332749378726E-04
(PID.TID 0000.0001) %MON dynstat_eta_del2             =   3.8672115764518E-06
(PID.TID 0000.0001) %MON dynstat_uvel_max             =   1.9699766377622E-02
(PID.TID 0000.0001) %MON dynstat_uvel_min             =  -1.9755429800401E-02
(PID.TID 0000.0001) %MON dynstat_uvel_mean            =  -1.0495761352034E-06
(PID.TID 0000.0001) %MON dynstat_uvel_sd              =   4.2620540905844E-03
(PID.TID 0000.0001) %MON dynstat_uvel_del2            =   1.7642259332954E-04
(PID.TID 0000.0001) %MON dynstat_vvel_max             =   9.5584722546405E-03
(PID.TID 0000.0001) %MON dynstat_vvel_min             =  -9.4604093480209E-03
(PID.TID 0000.0001) %MON dynstat_vvel_mean            =  -2.1732308177116E-10
(PID.TID 0000.0001) %MON dynstat_vvel_sd              =   3.3076502795468E-03
(PID.TID 0000.0001) %MON dynstat_vvel_del2            =   1.2340108281740E-04
(PID.TID 0000.0001) %MON dynstat_wvel_max             =   1.7836541344225E-04
(PID.TID 0000.0001) %MON dynstat_wvel_min             =  -1.7660662540772E-04
(PID.TID 0000.0001) %MON dynstat_wvel_mean            =   1.8366400244237E-22
(PID.TID 0000.0001) %MON dynstat_wvel_sd              =   5.8405597658120E-05
(PID.TID 0000.0001) %MON dynstat_wvel_del2            =   7.2757288477306E-06
(PID.TID 0000.0001) %MON dynstat_theta_max            =   1.7020391872683E+01
(PID.TID 0000.0001) %MON dynstat_theta_min            =   1.6979608188987E+01
(PID.TID 0000.0001) %MON dynstat_theta_mean           =   1.6999999916871E+01
(PID.TID 0000.0001) %MON dynstat_theta_sd             =   1.8679709188797E-02
(PID.TID 0000.0001) %MON dynstat_theta_del2           =   1.9624716502897E-04
(PID.TID 0000.0001) %MON dynstat_salt_max             =   1.7020387109310E+01
(PID.TID 0000.0001) %MON dynstat_salt_min             =   1.6979612982850E+01
(PID.TID 0000.0001) %MON dynstat_salt_mean            =   1.7000000005832E+01
(PID.TID 0000.0001) %MON dynstat_salt_sd              =   1.8681973188592E-02
(PID.TID 0000.0001) %MON dynstat_salt_del2            =   2.0111228650114E-04
(PID.TID 0000.0001) %MON advcfl_uvel_max              =   2.3706515760482E-02
(PID.TID 0000.0001) %MON advcfl_vvel_max              =   1.1470166705569E-02
(PID.TID 0000.0001) %MON advcfl_wvel_max              =   4.2807699226141E-02
(PID.TID 0000.0001) %MON advcfl_W_hf_max              =   4.2807699226141E-02
(PID.TID 0000.0001) %MON pe_b_mean                    =   3.4181330670686E-09
(PID.TID 0000.0001) %MON ke_max                       =   2.1404002227218E-04
(PID.TID 0000.0001) %MON ke_mean                      =   1.4334017264796E-05
(PID.TID 0000.0001) %MON ke_vol                       =   2.5000000000000E+11
(PID.TID 0000.0001) %MON vort_r_min                   =  -7.5649417461298E-06
(PID.TID 0000.0001) %MON vort_r_max                   =   7.9568917685360E-06
(PID.TID 0000.0001) %MON vort_a_mean                  =   7.2900000000000E-05
(PID.TID 0000.0001) %MON vort_a_sd                    =   1.9040434760252E-06
(PID.TID 0000.0001) %MON vort_p_mean                  =   7.7363265306123E-05
(PID.TID 0000.0001) %MON vort_p_sd                    =   3.0984566658364E-05
(PID.TID 0000.0001) %MON surfExpan_theta_mean         =  -1.4779534979639E-13
(PID.TID 0000.0001) %MON surfExpan_salt_mean          =  -2.3602890587124E-16
(PID.TID 0000.0001) // =======================================================
(PID.TID 0000.0001) // End MONITOR dynamic field statistics
(PID.TID 0000.0001) // =======================================================
 cg2d: Sum(rhs),rhsMax =   2.08066799466805E-13  7.98862988961442E-04
(PID.TID 0000.0001)                    cg2d_init_res =    8.49957960897435E-02
(PID.TID 0000.0001)                       cg2d_iters =    75
(PID.TID 0000.0001)                         cg2d_res =    9.65473144757742E-12
(PID.TID 0000.0001) // =======================================================
(PID.TID 0000.0001) // Begin MONITOR dynamic field statistics
(PID.TID 0000.0001) // =======================================================
(PID.TID 0000.0001) %MON time_tsnumber                =                    59
(PID.TID 0000.0001) %MON time_secondsf                =   7.0800000000000E+04
(PID.TID 0000.0001) %MON dynstat_eta_max              =   4.0184589158759E-04
(PID.TID 0000.0001) %MON dynstat_eta_min              =  -4.1363543623764E-04
(PID.TID 0000.0001) %MON dynstat_eta_mean             =  -4.4004754560789E-17
(PID.TID 0000.0001) %MON dynstat_eta_sd               =   3.7333464184294E-04
(PID.TID 0000.0001) %MON dynstat_eta_del2             =   3.8659293797887E-06
(PID.TID 0000.0001) %MON dynstat_uvel_max             =   1.8790663259871E-02
(PID.TID 0000.0001) %MON dynstat_uvel_min             =  -1.8847296826496E-02
(PID.TID 0000.0001) %MON dynstat_uvel_mean            =  -1.0457172020508E-06
(PID.TID 0000.0001) %MON dynstat_uvel_sd              =   4.0124347432667E-03
(PID.TID 0000.0001) %MON dynstat_uvel_del2            =   1.7426192155706E-04
(PID.TID 0000.0001) %MON dynstat_vvel_max             =   9.2593461246615E-03
(PID.TID 0000.0001) %MON dynstat_vvel_min             =  -9.1551767735910E-03
(PID.TID 0000.0001) %MON dynstat_vvel_mean            =  -2.0583365753408E-10
(PID.TID 0000.0001) %MON dynstat_vvel_sd              =   3.1909551777995E-03
(PID.TID 0000.0001) %MON dynstat_vvel_del2            =   1.2259638527013E-04
(PID.TID 0000.0001) %MON dynstat_wvel_max             =   1.7484562873186E-04
(PID.TID 0000.0001) %MON dynstat_wvel_min             =  -1.7301629067646E-04
(PID.TID 0000.0001) %MON dynstat_wvel_mean            =   1.3664150830480E-22
(PID.TID 0000.0001) %MON dynstat_wvel_sd              =   5.7328248507134E-05
(PID.TID 0000.0001) %MON dynstat_wvel_del2            =   7.2677750918538E-06
(PID.TID 0000.0001) %MON dynstat_theta_max            =   1.7020391872683E+01
(PID.TID 0000.0001) %MON dynstat_theta_min            =   1.6979608188988E+01
(PID.TID 0000.0001) %MON dynstat_theta_mean           =   1.6999999916871E+01
(PID.TID 0000.0001) %MON dynstat_theta_sd             =   1.8679649556279E-02
(PID.TID 0000.0001) %MON dynstat_theta_del2           =   1.9626333535228E-04
(PID.TID 0000.0001) %MON dynstat_salt_max             =   1.7020387109310E+01
(PID.TID 0000.0001) %MON dynstat_salt_min             =   1.6979612982850E+01
(PID.TID 0000.0001) %MON dynstat_salt_mean            =   1.7000000005832E+01
(PID.TID 0000.0001) %MON dynstat_salt_sd              =   1.8681680470318E-02
(PID.TID 0000.0001) %MON dynstat_salt_del2            =   2.0207764271769E-04
(PID.TID 0000.0001) %MON advcfl_uvel_max              =   2.2616756191796E-02
(PID.TID 0000.0001) %MON advcfl_vvel_max              =   1.1111215349594E-02
(PID.TID 0000.0001) %MON advcfl_wvel_max              =   4.1962950895646E-02
(PID.TID 0000.0001) %MON advcfl_W_hf_max              =   4.1962950895646E-02
(PID.TID 0000.0001) %MON pe_b_mean                    =   3.4182639614699E-09
(PID.TID 0000.0001) %MON ke_max                       =   1.9448985032097E-04
(PID.TID 0000.0001) %MON ke_mean                      =   1.2937270405677E-05
(PID.TID 0000.0001) %MON ke_vol                       =   2.5000000000000E+11
(PID.TID 0000.0001) %MON vort_r_min                   =  -7.4314483052464E-06
(PID.TID 0000.0001) %MON vort_r_max                   =   7.7606459169023E-06
(PID.TID 0000.0001) %MON vort_a_mean                  =   7.2899999999999E-05
(PID.TID 0000.0001) %MON vort_a_sd                    =   1.8531306149060E-06
(PID.TID 0000.0001) %MON vort_p_mean                  =   7.7363265306121E-05
(PID.TID 0000.0001) %MON vort_p_sd                    =   3.0981292356651E-05
(PID.TID 0000.0001) %MON surfExpan_theta_mean         =  -1.1297891546047E-13
(PID.TID 0000.0001) %MON surfExpan_salt_mean          =  -2.2085956838685E-16
(PID.TID 0000.0001) // =======================================================
(PID.TID 0000.0001) // End MONITOR dynamic field statistics
(PID.TID 0000.0001) // =======================================================
 cg2d: Sum(rhs),rhsMax =   1.89871501767719E-13  8.00328538866315E-04
(PID.TID 0000.0001)                    cg2d_init_res =    8.65022295697548E-02
(PID.TID 0000.0001)                       cg2d_iters =    75
(PID.TID 0000.0001)                         cg2d_res =    9.29997245017624E-12
(PID.TID 0000.0001) // =======================================================
(PID.TID 0000.0001) // Begin MONITOR dynamic field statistics
(PID.TID 0000.0001) // =======================================================
(PID.TID 0000.0001) %MON time_tsnumber                =                    60
(PID.TID 0000.0001) %MON time_secondsf                =   7.2000000000000E+04
(PID.TID 0000.0001) %MON dynstat_eta_max              =   4.0193290580076E-04
(PID.TID 0000.0001) %MON dynstat_eta_min              =  -4.1354915499927E-04
(PID.TID 0000.0001) %MON dynstat_eta_mean             =  -5.3781760643856E-17
(PID.TID 0000.0001) %MON dynstat_eta_sd               =   3.7334214463540E-04
(PID.TID 0000.0001) %MON dynstat_eta_del2             =   3.8646789405879E-06
(PID.TID 0000.0001) %MON dynstat_uvel_max             =   1.7920619328974E-02
(PID.TID 0000.0001) %MON dynstat_uvel_min             =  -1.7978629310727E-02
(PID.TID 0000.0001) %MON dynstat_uvel_mean            =  -1.0418110091921E-06
(PID.TID 0000.0001) %MON dynstat_uvel_sd              =   3.7787248304677E-03
(PID.TID 0000.0001) %MON dynstat_uvel_del2            =   1.7249041076830E-04
(PID.TID 0000.0001) %MON dynstat_vvel_max             =   8.9036123276959E-03
(PID.TID 0000.0001) %MON dynstat_vvel_min             =  -8.7935744498652E-03
(PID.TID 0000.0001) %MON dynstat_vvel_mean            =  -1.9278875820373E-10
(PID.TID 0000.0001) %MON dynstat_vvel_sd              =   3.0507159107000E-03
(PID.TID 0000.0001) %MON dynstat_vvel_del2            =   1.2164097655595E-04
(PID.TID 0000.0001) %MON dynstat_wvel_max             =   1.7046279883374E-04
(PID.TID 0000.0001) %MON dynstat_wvel_min             =  -1.6856138587118E-04
(PID.TID 0000.0001) %MON dynstat_wvel_mean            =  -1.5498196562873E-21
(PID.TID 0000.0001) %MON dynstat_wvel_sd              =   5.6045635705555E-05
(PID.TID 0000.0001) %MON dynstat_wvel_del2            =   7.2584668420381E-06
(PID.TID 0000.0001) %MON dynstat_theta_max            =   1.7020391872683E+01
(PID.TID 0000.0001) %MON dynstat_theta_min            =   1.6979608188989E+01
(PID.TID 0000.0001) %MON dynstat_theta_mean           =   1.6999999916872E+01
(PID.TID 0000.0001) %MON dynstat_theta_sd             =   1.8679592306261E-02
(PID.TID 0000.0001) %MON dynstat_theta_del2           =   1.9627974139480E-04
(PID.TID 0000.0001) %MON dynstat_salt_max             =   1.7020387109310E+01
(PID.TID 0000.0001) %MON dynstat_salt_min             =   1.6979612982850E+01
(PID.TID 0000.0001) %MON dynstat_salt_mean            =   1.7000000005832E+01
(PID.TID 0000.0001) %MON dynstat_salt_sd              =   1.8681360888490E-02
(PID.TID 0000.0001) %MON dynstat_salt_del2            =   2.0310064868964E-04
(PID.TID 0000.0001) %MON advcfl_uvel_max              =   2.1574355172873E-02
(PID.TID 0000.0001) %MON advcfl_vvel_max              =   1.0684334793235E-02
(PID.TID 0000.0001) %MON advcfl_wvel_max              =   4.0911071720098E-02
(PID.TID 0000.0001) %MON advcfl_W_hf_max              =   4.0911071720098E-02
(PID.TID 0000.0001) %MON pe_b_mean                    =   3.4184013544676E-09
(PID.TID 0000.0001) %MON ke_max                       =   1.7618638791980E-04
(PID.TID 0000.0001) %MON ke_mean                      =   1.1606677647425E-05
(PID.TID 0000.0001) %MON ke_vol                       =   2.5000000000000E+11
(PID.TID 0000.0001) %MON vort_r_min                   =  -7.3027482569642E-06
(PID.TID 0000.0001) %MON vort_r_max                   =   7.5722506446185E-06
(PID.TID 0000.0001) %MON vort_a_mean                  =   7.2900000000000E-05
(PID.TID 0000.0001) %MON vort_a_sd                    =   1.8054981429143E-06
(PID.TID 0000.0001) %MON vort_p_mean                  =   7.7363265306122E-05
(PID.TID 0000.0001) %MON vort_p_sd                    =   3.0978309393093E-05
(PID.TID 0000.0001) %MON surfExpan_theta_mean         =  -8.2650240480410E-14
(PID.TID 0000.0001) %MON surfExpan_salt_mean          =  -1.9692210795502E-16
(PID.TID 0000.0001) // =======================================================
(PID.TID 0000.0001) // End MONITOR dynamic field statistics
(PID.TID 0000.0001) // =======================================================
 cg2d: Sum(rhs),rhsMax =   2.81423755826848E-13  8.01883034315382E-04
(PID.TID 0000.0001)                    cg2d_init_res =    8.80807793963620E-02
(PID.TID 0000.0001)                       cg2d_iters =    74
(PID.TID 0000.0001)                         cg2d_res =    9.85723152753319E-12
(PID.TID 0000.0001) // =======================================================
(PID.TID 0000.0001) // Begin MONITOR dynamic field statistics
(PID.TID 0000.0001) // =======================================================
(PID.TID 0000.0001) %MON time_tsnumber                =                    61
(PID.TID 0000.0001) %MON time_secondsf                =   7.3200000000000E+04
(PID.TID 0000.0001) %MON dynstat_eta_max              =   4.0199181283047E-04
(PID.TID 0000.0001) %MON dynstat_eta_min              =  -4.1349098685541E-04
(PID.TID 0000.0001) %MON dynstat_eta_mean             =  -5.5043726273629E-17
(PID.TID 0000.0001) %MON dynstat_eta_sd               =   3.7334975417061E-04
(PID.TID 0000.0001) %MON dynstat_eta_del2             =   3.8634479387003E-06
(PID.TID 0000.0001) %MON dynstat_uvel_max             =   1.7095521895639E-02
(PID.TID 0000.0001) %MON dynstat_uvel_min             =  -1.7155295226409E-02
(PID.TID 0000.0001) %MON dynstat_uvel_mean            =  -1.0378791363965E-06
(PID.TID 0000.0001) %MON dynstat_uvel_sd              =   3.5627086672997E-03
(PID.TID 0000.0001) %MON dynstat_uvel_del2            =   1.7105644872562E-04
(PID.TID 0000.0001) %MON dynstat_vvel_max             =   8.4941835867004E-03
(PID.TID 0000.0001) %MON dynstat_vvel_min             =  -8.3785428938371E-03
(PID.TID 0000.0001) %MON dynstat_vvel_mean            =  -1.7850358627499E-10
(PID.TID 0000.0001) %MON dynstat_vvel_sd              =   2.8883917845417E-03
(PID.TID 0000.0001) %MON dynstat_vvel_del2            =   1.2054876485324E-04
(PID.TID 0000.0001) %MON dynstat_wvel_max             =   1.6526077229234E-04
(PID.TID 0000.0001) %MON dynstat_wvel_min             =  -1.6328775816301E-04
(PID.TID 0000.0001) %MON dynstat_wvel_mean            =  -7.3263441700052E-22
(PID.TID 0000.0001) %MON dynstat_wvel_sd              =   5.4589709347002E-05
(PID.TID 0000.0001) %MON dynstat_wvel_del2            =   7.2475775068441E-06
(PID.TID 0000.0001) %MON dynstat_theta_max            =   1.7020391872683E+01
(PID.TID 0000.0001) %MON dynstat_theta_min            =   1.6979608188995E+01
(PID.TID 0000.0001) %MON dynstat_theta_mean           =   1.6999999916873E+01
(PID.TID 0000.0001) %MON dynstat_theta_sd             =   1.8679537951305E-02
(PID.TID 0000.0001) %MON dynstat_theta_del2           =   1.9629680737713E-04
(PID.TID 0000.0001) %MON dynstat_salt_max             =   1.7020387109310E+01
(PID.TID 0000.0001) %MON dynstat_salt_min             =   1.6979612982850E+01
(PID.TID 0000.0001) %MON dynstat_salt_mean            =   1.7000000005832E+01
(PID.TID 0000.0001) %MON dynstat_salt_sd              =   1.8681019208292E-02
(PID.TID 0000.0001) %MON dynstat_salt_del2            =   2.0416354606015E-04
(PID.TID 0000.0001) %MON advcfl_uvel_max              =   2.0586354271691E-02
(PID.TID 0000.0001) %MON advcfl_vvel_max              =   1.0193020304040E-02
(PID.TID 0000.0001) %MON advcfl_wvel_max              =   3.9662585350161E-02
(PID.TID 0000.0001) %MON advcfl_W_hf_max              =   3.9662585350161E-02
(PID.TID 0000.0001) %MON pe_b_mean                    =   3.4185407049852E-09
(PID.TID 0000.0001) %MON ke_max                       =   1.5924179216900E-04
(PID.TID 0000.0001) %MON ke_mean                      =   1.0350994471107E-05
(PID.TID 0000.0001) %MON ke_vol                       =   2.5000000000000E+11
(PID.TID 0000.0001) %MON vort_r_min                   =  -7.1795279782810E-06
(PID.TID 0000.0001) %MON vort_r_max                   =   7.3928550780834E-06
(PID.TID 0000.0001) %MON vort_a_mean                  =   7.2900000000000E-05
(PID.TID 0000.0001) %MON vort_a_sd                    =   1.7613578745084E-06
(PID.TID 0000.0001) %MON vort_p_mean                  =   7.7363265306122E-05
(PID.TID 0000.0001) %MON vort_p_sd                    =   3.0975614586802E-05
(PID.TID 0000.0001) %MON surfExpan_theta_mean         =  -5.6015885096184E-14
(PID.TID 0000.0001) %MON surfExpan_salt_mean          =  -1.6733739997968E-16
(PID.TID 0000.0001) // =======================================================
(PID.TID 0000.0001) // End MONITOR dynamic field statistics
(PID.TID 0000.0001) // =======================================================
 cg2d: Sum(rhs),rhsMax =   3.00639504610678E-13  8.03532234777284E-04
(PID.TID 0000.0001)                    cg2d_init_res =    8.96776761018517E-02
(PID.TID 0000.0001)                       cg2d_iters =    74
(PID.TID 0000.0001)                         cg2d_res =    9.18425661839301E-12
(PID.TID 0000.0001) // =======================================================
(PID.TID 0000.0001) // Begin MONITOR dynamic field statistics
(PID.TID 0000.0001) // =======================================================
(PID.TID 0000.0001) %MON time_tsnumber                =                    62
(PID.TID 0000.0001) %MON time_secondsf                =   7.4400000000000E+04
(PID.TID 0000.0001) %MON dynstat_eta_max              =   4.0202516633877E-04
(PID.TID 0000.0001) %MON dynstat_eta_min              =  -4.1345837452831E-04
(PID.TID 0000.0001) %MON dynstat_eta_mean             =  -6.8830737289249E-17
(PID.TID 0000.0001) %MON dynstat_eta_sd               =   3.7335723850478E-04
(PID.TID 0000.0001) %MON dynstat_eta_del2             =   3.8622164750249E-06
(PID.TID 0000.0001) %MON dynstat_uvel_max             =   1.6320845302894E-02
(PID.TID 0000.0001) %MON dynstat_uvel_min             =  -1.6382750655934E-02
(PID.TID 0000.0001) %MON dynstat_uvel_mean            =  -1.0339414377072E-06
(PID.TID 0000.0001) %MON dynstat_uvel_sd              =   3.3658141283708E-03
(PID.TID 0000.0001) %MON dynstat_uvel_del2            =   1.6991499262832E-04
(PID.TID 0000.0001) %MON dynstat_vvel_max             =   8.0348972656698E-03
(PID.TID 0000.0001) %MON dynstat_vvel_min             =  -7.9139794619228E-03
(PID.TID 0000.0001) %MON dynstat_vvel_mean            =  -1.6320266316409E-10
(PID.TID 0000.0001) %MON dynstat_vvel_sd              =   2.7057021673863E-03
(PID.TID 0000.0001) %MON dynstat_vvel_del2            =   1.1933926564145E-04
(PID.TID 0000.0001) %MON dynstat_wvel_max             =   1.5928786671550E-04
(PID.TID 0000.0001) %MON dynstat_wvel_min             =  -1.5724557261295E-04
(PID.TID 0000.0001) %MON dynstat_wvel_mean            =  -1.5882095199426E-21
(PID.TID 0000.0001) %MON dynstat_wvel_sd              =   5.2999160047439E-05
(PID.TID 0000.0001) %MON dynstat_wvel_del2            =   7.2351469921808E-06
(PID.TID 0000.0001) %MON dynstat_theta_max            =   1.7020391872683E+01
(PID.TID 0000.0001) %MON dynstat_theta_min            =   1.6979608189001E+01
(PID.TID 0000.0001) %MON dynstat_theta_mean           =   1.6999999916873E+01
(PID.TID 0000.0001) %MON dynstat_theta_sd             =   1.8679487680975E-02
(PID.TID 0000.0001) %MON dynstat_theta_del2           =   1.9631495384853E-04
(PID.TID 0000.0001) %MON dynstat_salt_max             =   1.7020387109310E+01
(PID.TID 0000.0001) %MON dynstat_salt_min             =   1.6979612982850E+01
(PID.TID 0000.0001) %MON dynstat_salt_mean            =   1.7000000005832E+01
(PID.TID 0000.0001) %MON dynstat_salt_sd              =   1.8680810248822E-02
(PID.TID 0000.0001) %MON dynstat_salt_del2            =   2.0495805847528E-04
(PID.TID 0000.0001) %MON advcfl_uvel_max              =   1.9659300787121E-02
(PID.TID 0000.0001) %MON advcfl_vvel_max              =   9.6418767188038E-03
(PID.TID 0000.0001) %MON advcfl_wvel_max              =   3.8229088011721E-02
(PID.TID 0000.0001) %MON advcfl_W_hf_max              =   3.8229088011721E-02
(PID.TID 0000.0001) %MON pe_b_mean                    =   3.4186777655144E-09
(PID.TID 0000.0001) %MON ke_max                       =   1.4375702716349E-04
(PID.TID 0000.0001) %MON ke_mean                      =   9.1783485328151E-06
(PID.TID 0000.0001) %MON ke_vol                       =   2.5000000000000E+11
(PID.TID 0000.0001) %MON vort_r_min                   =  -7.0624004399723E-06
(PID.TID 0000.0001) %MON vort_r_max                   =   7.2235103834671E-06
(PID.TID 0000.0001) %MON vort_a_mean                  =   7.2900000000001E-05
(PID.TID 0000.0001) %MON vort_a_sd                    =   1.7208545599315E-06
(PID.TID 0000.0001) %MON vort_p_mean                  =   7.7363265306123E-05
(PID.TID 0000.0001) %MON vort_p_sd                    =   3.0973200717168E-05
(PID.TID 0000.0001) %MON surfExpan_theta_mean         =  -3.5358335607892E-14
(PID.TID 0000.0001) %MON surfExpan_salt_mean          =  -1.3842531750776E-16
(PID.TID 0000.0001) // =======================================================
(PID.TID 0000.0001) // End MONITOR dynamic field statistics
(PID.TID 0000.0001) // =======================================================
 cg2d: Sum(rhs),rhsMax =   3.43153294408288E-13  8.04876896733220E-04
(PID.TID 0000.0001)                    cg2d_init_res =    8.11489278261919E-02
(PID.TID 0000.0001)                       cg2d_iters =    74
(PID.TID 0000.0001)                         cg2d_res =    8.58940516543162E-12
(PID.TID 0000.0001) // =======================================================
(PID.TID 0000.0001) // Begin MONITOR dynamic field statistics
(PID.TID 0000.0001) // =======================================================
(PID.TID 0000.0001) %MON time_tsnumber                =                    63
(PID.TID 0000.0001) %MON time_secondsf                =   7.5600000000000E+04
(PID.TID 0000.0001) %MON dynstat_eta_max              =   4.0203937649449E-04
(PID.TID 0000.0001) %MON dynstat_eta_min              =  -4.1344490589063E-04
(PID.TID 0000.0001) %MON dynstat_eta_mean             =  -6.2011717369970E-17
(PID.TID 0000.0001) %MON dynstat_eta_sd               =   3.7336435471763E-04
(PID.TID 0000.0001) %MON dynstat_eta_del2             =   3.8609661939557E-06
(PID.TID 0000.0001) %MON dynstat_uvel_max             =   1.5601618646667E-02
(PID.TID 0000.0001) %MON dynstat_uvel_min             =  -1.5666009435256E-02
(PID.TID 0000.0001) %MON dynstat_uvel_mean            =  -1.0300161245097E-06
(PID.TID 0000.0001) %MON dynstat_uvel_sd              =   3.1890423486656E-03
(PID.TID 0000.0001) %MON dynstat_uvel_del2            =   1.6895582125519E-04
(PID.TID 0000.0001) %MON dynstat_vvel_max             =   7.5292237130291E-03
(PID.TID 0000.0001) %MON dynstat_vvel_min             =  -7.4033819311948E-03
(PID.TID 0000.0001) %MON dynstat_vvel_mean            =  -1.4638038089704E-10
(PID.TID 0000.0001) %MON dynstat_vvel_sd              =   2.5046434800330E-03
(PID.TID 0000.0001) %MON dynstat_vvel_del2            =   1.1803836515838E-04
(PID.TID 0000.0001) %MON dynstat_wvel_max             =   1.5262782584352E-04
(PID.TID 0000.0001) %MON dynstat_wvel_min             =  -1.5052069383958E-04
(PID.TID 0000.0001) %MON dynstat_wvel_mean            =  -3.1372600962146E-21
(PID.TID 0000.0001) %MON dynstat_wvel_sd              =   5.1316915189709E-05
(PID.TID 0000.0001) %MON dynstat_wvel_del2            =   7.2188745912434E-06
(PID.TID 0000.0001) %MON dynstat_theta_max            =   1.7020391872683E+01
(PID.TID 0000.0001) %MON dynstat_theta_min            =   1.6979608189004E+01
(PID.TID 0000.0001) %MON dynstat_theta_mean           =   1.6999999916873E+01
(PID.TID 0000.0001) %MON dynstat_theta_sd             =   1.8679441398821E-02
(PID.TID 0000.0001) %MON dynstat_theta_del2           =   1.9633454783791E-04
(PID.TID 0000.0001) %MON dynstat_salt_max             =   1.7020387109310E+01
(PID.TID 0000.0001) %MON dynstat_salt_min             =   1.6979612982850E+01
(PID.TID 0000.0001) %MON dynstat_salt_mean            =   1.7000000005832E+01
(PID.TID 0000.0001) %MON dynstat_salt_sd              =   1.8680604052537E-02
(PID.TID 0000.0001) %MON dynstat_salt_del2            =   2.0559884581775E-04
(PID.TID 0000.0001) %MON advcfl_uvel_max              =   1.8799211322307E-02
(PID.TID 0000.0001) %MON advcfl_vvel_max              =   9.0350684556349E-03
(PID.TID 0000.0001) %MON advcfl_wvel_max              =   3.6630678202444E-02
(PID.TID 0000.0001) %MON advcfl_W_hf_max              =   3.6630678202444E-02
(PID.TID 0000.0001) %MON pe_b_mean                    =   3.4188080871903E-09
(PID.TID 0000.0001) %MON ke_max                       =   1.2982119526609E-04
(PID.TID 0000.0001) %MON ke_mean                      =   8.0961507830525E-06
(PID.TID 0000.0001) %MON ke_vol                       =   2.5000000000000E+11
(PID.TID 0000.0001) %MON vort_r_min                   =  -6.9519208966475E-06
(PID.TID 0000.0001) %MON vort_r_max                   =   7.0651700221317E-06
(PID.TID 0000.0001) %MON vort_a_mean                  =   7.2900000000000E-05
(PID.TID 0000.0001) %MON vort_a_sd                    =   1.6840673444435E-06
(PID.TID 0000.0001) %MON vort_p_mean                  =   7.7363265306122E-05
(PID.TID 0000.0001) %MON vort_p_sd                    =   3.0971057289231E-05
(PID.TID 0000.0001) %MON surfExpan_theta_mean         =  -1.7605628425839E-14
(PID.TID 0000.0001) %MON surfExpan_salt_mean          =  -1.0668655257662E-16
(PID.TID 0000.0001) // =======================================================
(PID.TID 0000.0001) // End MONITOR dynamic field statistics
(PID.TID 0000.0001) // =======================================================
 cg2d: Sum(rhs),rhsMax =   4.06709496809932E-13  8.06145432754115E-04
(PID.TID 0000.0001)                    cg2d_init_res =    7.74755722907496E-02
(PID.TID 0000.0001)                       cg2d_iters =    79
(PID.TID 0000.0001)                         cg2d_res =    9.79080022245243E-12
(PID.TID 0000.0001) // =======================================================
(PID.TID 0000.0001) // Begin MONITOR dynamic field statistics
(PID.TID 0000.0001) // =======================================================
(PID.TID 0000.0001) %MON time_tsnumber                =                    64
(PID.TID 0000.0001) %MON time_secondsf                =   7.6800000000000E+04
(PID.TID 0000.0001) %MON dynstat_eta_max              =   4.0203596488580E-04
(PID.TID 0000.0001) %MON dynstat_eta_min              =  -4.1344905421887E-04
(PID.TID 0000.0001) %MON dynstat_eta_mean             =  -5.9777032308528E-17
(PID.TID 0000.0001) %MON dynstat_eta_sd               =   3.7337088416009E-04
(PID.TID 0000.0001) %MON dynstat_eta_del2             =   3.8596793633530E-06
(PID.TID 0000.0001) %MON dynstat_uvel_max             =   1.4942395782917E-02
(PID.TID 0000.0001) %MON dynstat_uvel_min             =  -1.5009594023376E-02
(PID.TID 0000.0001) %MON dynstat_uvel_mean            =  -1.0261199897666E-06
(PID.TID 0000.0001) %MON dynstat_uvel_sd              =   3.0329150068814E-03
(PID.TID 0000.0001) %MON dynstat_uvel_del2            =   1.6817874196950E-04
(PID.TID 0000.0001) %MON dynstat_vvel_max             =   6.9839201898813E-03
(PID.TID 0000.0001) %MON dynstat_vvel_min             =  -6.8559789426764E-03
(PID.TID 0000.0001) %MON dynstat_vvel_mean            =  -1.2882945358766E-10
(PID.TID 0000.0001) %MON dynstat_vvel_sd              =   2.2875736374155E-03
(PID.TID 0000.0001) %MON dynstat_vvel_del2            =   1.1666117674961E-04
(PID.TID 0000.0001) %MON dynstat_wvel_max             =   1.4533977759977E-04
(PID.TID 0000.0001) %MON dynstat_wvel_min             =  -1.4317400067447E-04
(PID.TID 0000.0001) %MON dynstat_wvel_mean            =  -1.1506394072060E-21
(PID.TID 0000.0001) %MON dynstat_wvel_sd              =   4.9594568043813E-05
(PID.TID 0000.0001) %MON dynstat_wvel_del2            =   7.1986592797911E-06
(PID.TID 0000.0001) %MON dynstat_theta_max            =   1.7020391872683E+01
(PID.TID 0000.0001) %MON dynstat_theta_min            =   1.6979608189008E+01
(PID.TID 0000.0001) %MON dynstat_theta_mean           =   1.6999999916873E+01
(PID.TID 0000.0001) %MON dynstat_theta_sd             =   1.8679400393898E-02
(PID.TID 0000.0001) %MON dynstat_theta_del2           =   1.9635594223502E-04
(PID.TID 0000.0001) %MON dynstat_salt_max             =   1.7020387109310E+01
(PID.TID 0000.0001) %MON dynstat_salt_min             =   1.6979612982850E+01
(PID.TID 0000.0001) %MON dynstat_salt_mean            =   1.7000000005832E+01
(PID.TID 0000.0001) %MON dynstat_salt_sd              =   1.8680563987124E-02
(PID.TID 0000.0001) %MON dynstat_salt_del2            =   2.0605301913365E-04
(PID.TID 0000.0001) %MON advcfl_uvel_max              =   1.8011512828051E-02
(PID.TID 0000.0001) %MON advcfl_vvel_max              =   8.3807042278576E-03
(PID.TID 0000.0001) %MON advcfl_wvel_max              =   3.4881546623946E-02
(PID.TID 0000.0001) %MON advcfl_W_hf_max              =   3.4881546623946E-02
(PID.TID 0000.0001) %MON pe_b_mean                    =   3.4189276653214E-09
(PID.TID 0000.0001) %MON ke_max                       =   1.1751067350390E-04
(PID.TID 0000.0001) %MON ke_mean                      =   7.1111239563115E-06
(PID.TID 0000.0001) %MON ke_vol                       =   2.5000000000000E+11
(PID.TID 0000.0001) %MON vort_r_min                   =  -6.8485524069820E-06
(PID.TID 0000.0001) %MON vort_r_max                   =   6.9187302774055E-06
(PID.TID 0000.0001) %MON vort_a_mean                  =   7.2900000000001E-05
(PID.TID 0000.0001) %MON vort_a_sd                    =   1.6510157365860E-06
(PID.TID 0000.0001) %MON vort_p_mean                  =   7.7363265306123E-05
(PID.TID 0000.0001) %MON vort_p_sd                    =   3.0969171426159E-05
(PID.TID 0000.0001) %MON surfExpan_theta_mean         =  -7.1509919396413E-15
(PID.TID 0000.0001) %MON surfExpan_salt_mean          =   5.1999033424823E-16
(PID.TID 0000.0001) // =======================================================
(PID.TID 0000.0001) // End MONITOR dynamic field statistics
(PID.TID 0000.0001) // =======================================================
 cg2d: Sum(rhs),rhsMax =   3.20685752258631E-13  8.06885992824661E-04
(PID.TID 0000.0001)                    cg2d_init_res =    6.27675869957958E-02
(PID.TID 0000.0001)                       cg2d_iters =    75
(PID.TID 0000.0001)                         cg2d_res =    7.74278747326959E-12
(PID.TID 0000.0001) // =======================================================
(PID.TID 0000.0001) // Begin MONITOR dynamic field statistics
(PID.TID 0000.0001) // =======================================================
(PID.TID 0000.0001) %MON time_tsnumber                =                    65
(PID.TID 0000.0001) %MON time_secondsf                =   7.8000000000000E+04
(PID.TID 0000.0001) %MON dynstat_eta_max              =   4.0202209605192E-04
(PID.TID 0000.0001) %MON dynstat_eta_min              =  -4.1346365123050E-04
(PID.TID 0000.0001) %MON dynstat_eta_mean             =  -6.6956903420623E-17
(PID.TID 0000.0001) %MON dynstat_eta_sd               =   3.7337669072817E-04
(PID.TID 0000.0001) %MON dynstat_eta_del2             =   3.8583385945530E-06
(PID.TID 0000.0001) %MON dynstat_uvel_max             =   1.4347233321722E-02
(PID.TID 0000.0001) %MON dynstat_uvel_min             =  -1.4417528211488E-02
(PID.TID 0000.0001) %MON dynstat_uvel_mean            =  -1.0222694017378E-06
(PID.TID 0000.0001) %MON dynstat_uvel_sd              =   2.8974421185428E-03
(PID.TID 0000.0001) %MON dynstat_uvel_del2            =   1.6752054243006E-04
(PID.TID 0000.0001) %MON dynstat_vvel_max             =   6.4055725602363E-03
(PID.TID 0000.0001) %MON dynstat_vvel_min             =  -6.2736461371710E-03
(PID.TID 0000.0001) %MON dynstat_vvel_mean            =  -1.1110403610130E-10
(PID.TID 0000.0001) %MON dynstat_vvel_sd              =   2.0573344136690E-03
(PID.TID 0000.0001) %MON dynstat_vvel_del2            =   1.1524853833894E-04
(PID.TID 0000.0001) %MON dynstat_wvel_max             =   1.3745211336519E-04
(PID.TID 0000.0001) %MON dynstat_wvel_min             =  -1.3523375780749E-04
(PID.TID 0000.0001) %MON dynstat_wvel_mean            =   1.6799009089803E-21
(PID.TID 0000.0001) %MON dynstat_wvel_sd              =   4.7893397144509E-05
(PID.TID 0000.0001) %MON dynstat_wvel_del2            =   7.1773137613215E-06
(PID.TID 0000.0001) %MON dynstat_theta_max            =   1.7020391872683E+01
(PID.TID 0000.0001) %MON dynstat_theta_min            =   1.6979608189012E+01
(PID.TID 0000.0001) %MON dynstat_theta_mean           =   1.6999999916873E+01
(PID.TID 0000.0001) %MON dynstat_theta_sd             =   1.8679364026716E-02
(PID.TID 0000.0001) %MON dynstat_theta_del2           =   1.9637938045810E-04
(PID.TID 0000.0001) %MON dynstat_salt_max             =   1.7020387109310E+01
(PID.TID 0000.0001) %MON dynstat_salt_min             =   1.6979612982850E+01
(PID.TID 0000.0001) %MON dynstat_salt_mean            =   1.7000000005832E+01
(PID.TID 0000.0001) %MON dynstat_salt_sd              =   1.8680520270941E-02
(PID.TID 0000.0001) %MON dynstat_salt_del2            =   2.0629632618115E-04
(PID.TID 0000.0001) %MON advcfl_uvel_max              =   1.7301033853785E-02
(PID.TID 0000.0001) %MON advcfl_vvel_max              =   7.6866870722835E-03
(PID.TID 0000.0001) %MON advcfl_wvel_max              =   3.2988507207646E-02
(PID.TID 0000.0001) %MON advcfl_W_hf_max              =   3.2988507207646E-02
(PID.TID 0000.0001) %MON pe_b_mean                    =   3.4190340067178E-09
(PID.TID 0000.0001) %MON ke_max                       =   1.0688999499314E-04
(PID.TID 0000.0001) %MON ke_mean                      =   6.2292458847104E-06
(PID.TID 0000.0001) %MON ke_vol                       =   2.5000000000000E+11
(PID.TID 0000.0001) %MON vort_r_min                   =  -6.7526900030927E-06
(PID.TID 0000.0001) %MON vort_r_max                   =   6.7850225661109E-06
(PID.TID 0000.0001) %MON vort_a_mean                  =   7.2900000000001E-05
(PID.TID 0000.0001) %MON vort_a_sd                    =   1.6216646891884E-06
(PID.TID 0000.0001) %MON vort_p_mean                  =   7.7363265306123E-05
(PID.TID 0000.0001) %MON vort_p_sd                    =   3.0967528549418E-05
(PID.TID 0000.0001) %MON surfExpan_theta_mean         =   4.6522973013922E-16
(PID.TID 0000.0001) %MON surfExpan_salt_mean          =   9.3032770351239E-17
(PID.TID 0000.0001) // =======================================================
(PID.TID 0000.0001) // End MONITOR dynamic field statistics
(PID.TID 0000.0001) // =======================================================
 cg2d: Sum(rhs),rhsMax =   4.49002814095767E-13  8.07483836741669E-04
(PID.TID 0000.0001)                    cg2d_init_res =    5.57437074651523E-02
(PID.TID 0000.0001)                       cg2d_iters =    73
(PID.TID 0000.0001)                         cg2d_res =    7.57563924946482E-12
(PID.TID 0000.0001) // =======================================================
(PID.TID 0000.0001) // Begin MONITOR dynamic field statistics
(PID.TID 0000.0001) // =======================================================
(PID.TID 0000.0001) %MON time_tsnumber                =                    66
(PID.TID 0000.0001) %MON time_secondsf                =   7.9200000000000E+04
(PID.TID 0000.0001) %MON dynstat_eta_max              =   4.0199858916216E-04
(PID.TID 0000.0001) %MON dynstat_eta_min              =  -4.1348787759671E-04
(PID.TID 0000.0001) %MON dynstat_eta_mean             =  -6.0187193830497E-17
(PID.TID 0000.0001) %MON dynstat_eta_sd               =   3.7338161033628E-04
(PID.TID 0000.0001) %MON dynstat_eta_del2             =   3.8569300772117E-06
(PID.TID 0000.0001) %MON dynstat_uvel_max             =   1.3819665685072E-02
(PID.TID 0000.0001) %MON dynstat_uvel_min             =  -1.3893313500775E-02
(PID.TID 0000.0001) %MON dynstat_uvel_mean            =  -1.0184809428977E-06
(PID.TID 0000.0001) %MON dynstat_uvel_sd              =   2.7821323396817E-03
(PID.TID 0000.0001) %MON dynstat_uvel_del2            =   1.6699022506162E-04
(PID.TID 0000.0001) %MON dynstat_vvel_max             =   5.7947009607382E-03
(PID.TID 0000.0001) %MON dynstat_vvel_min             =  -5.6592971337831E-03
(PID.TID 0000.0001) %MON dynstat_vvel_mean            =  -9.3295906941577E-11
(PID.TID 0000.0001) %MON dynstat_vvel_sd              =   1.8174529636251E-03
(PID.TID 0000.0001) %MON dynstat_vvel_del2            =   1.1382182156308E-04
(PID.TID 0000.0001) %MON dynstat_wvel_max             =   1.2903408945142E-04
(PID.TID 0000.0001) %MON dynstat_wvel_min             =  -1.2677115716232E-04
(PID.TID 0000.0001) %MON dynstat_wvel_mean            =  -5.4467215196766E-22
(PID.TID 0000.0001) %MON dynstat_wvel_sd              =   4.6277645089697E-05
(PID.TID 0000.0001) %MON dynstat_wvel_del2            =   7.1549134131958E-06
(PID.TID 0000.0001) %MON dynstat_theta_max            =   1.7020391872683E+01
(PID.TID 0000.0001) %MON dynstat_theta_min            =   1.6979608189016E+01
(PID.TID 0000.0001) %MON dynstat_theta_mean           =   1.6999999916873E+01
(PID.TID 0000.0001) %MON dynstat_theta_sd             =   1.8679332521626E-02
(PID.TID 0000.0001) %MON dynstat_theta_del2           =   1.9640502651146E-04
(PID.TID 0000.0001) %MON dynstat_salt_max             =   1.7020387109310E+01
(PID.TID 0000.0001) %MON dynstat_salt_min             =   1.6979612982850E+01
(PID.TID 0000.0001) %MON dynstat_salt_mean            =   1.7000000005832E+01
(PID.TID 0000.0001) %MON dynstat_salt_sd              =   1.8680479324588E-02
(PID.TID 0000.0001) %MON dynstat_salt_del2            =   2.0648242309441E-04
(PID.TID 0000.0001) %MON advcfl_uvel_max              =   1.6671976200930E-02
(PID.TID 0000.0001) %MON advcfl_vvel_max              =   6.9536411528858E-03
(PID.TID 0000.0001) %MON advcfl_wvel_max              =   3.0968181468341E-02
(PID.TID 0000.0001) %MON advcfl_W_hf_max              =   3.0968181468341E-02
(PID.TID 0000.0001) %MON pe_b_mean                    =   3.4191241056376E-09
(PID.TID 0000.0001) %MON ke_max                       =   9.8011186458441E-05
(PID.TID 0000.0001) %MON ke_mean                      =   5.4556356283983E-06
(PID.TID 0000.0001) %MON ke_vol                       =   2.5000000000000E+11
(PID.TID 0000.0001) %MON vort_r_min                   =  -6.6646862252335E-06
(PID.TID 0000.0001) %MON vort_r_max                   =   6.6647190775448E-06
(PID.TID 0000.0001) %MON vort_a_mean                  =   7.2900000000000E-05
(PID.TID 0000.0001) %MON vort_a_sd                    =   1.5959314326666E-06
(PID.TID 0000.0001) %MON vort_p_mean                  =   7.7363265306122E-05
(PID.TID 0000.0001) %MON vort_p_sd                    =   3.0966113022032E-05
(PID.TID 0000.0001) %MON surfExpan_theta_mean         =   2.4827195182619E-15
(PID.TID 0000.0001) %MON surfExpan_salt_mean          =  -1.0211061115253E-17
(PID.TID 0000.0001) // =======================================================
(PID.TID 0000.0001) // End MONITOR dynamic field statistics
(PID.TID 0000.0001) // =======================================================
 cg2d: Sum(rhs),rhsMax =   3.51010832812942E-13  8.08028176969006E-04
(PID.TID 0000.0001)                    cg2d_init_res =    5.00369162783212E-02
(PID.TID 0000.0001)                       cg2d_iters =    73
(PID.TID 0000.0001)                         cg2d_res =    6.97089607894134E-12
(PID.TID 0000.0001) // =======================================================
(PID.TID 0000.0001) // Begin MONITOR dynamic field statistics
(PID.TID 0000.0001) // =======================================================
(PID.TID 0000.0001) %MON time_tsnumber                =                    67
(PID.TID 0000.0001) %MON time_secondsf                =   8.0400000000000E+04
(PID.TID 0000.0001) %MON dynstat_eta_max              =   4.0196814088443E-04
(PID.TID 0000.0001) %MON dynstat_eta_min              =  -4.1351903214640E-04
(PID.TID 0000.0001) %MON dynstat_eta_mean             =  -7.0846770518496E-17
(PID.TID 0000.0001) %MON dynstat_eta_sd               =   3.7338550624101E-04
(PID.TID 0000.0001) %MON dynstat_eta_del2             =   3.8554403599853E-06
(PID.TID 0000.0001) %MON dynstat_uvel_max             =   1.3362678044432E-02
(PID.TID 0000.0001) %MON dynstat_uvel_min             =  -1.3439896724368E-02
(PID.TID 0000.0001) %MON dynstat_uvel_mean            =  -1.0147694359657E-06
(PID.TID 0000.0001) %MON dynstat_uvel_sd              =   2.6860658304070E-03
(PID.TID 0000.0001) %MON dynstat_uvel_del2            =   1.6654159503445E-04
(PID.TID 0000.0001) %MON dynstat_vvel_max             =   5.1561060170677E-03
(PID.TID 0000.0001) %MON dynstat_vvel_min             =  -5.0177834867754E-03
(PID.TID 0000.0001) %MON dynstat_vvel_mean            =  -7.5388125685099E-11
(PID.TID 0000.0001) %MON dynstat_vvel_sd              =   1.5726128961069E-03
(PID.TID 0000.0001) %MON dynstat_vvel_del2            =   1.1241248356049E-04
(PID.TID 0000.0001) %MON dynstat_wvel_max             =   1.2015630193239E-04
(PID.TID 0000.0001) %MON dynstat_wvel_min             =  -1.1826313390866E-04
(PID.TID 0000.0001) %MON dynstat_wvel_mean            =   1.1161442854779E-21
(PID.TID 0000.0001) %MON dynstat_wvel_sd              =   4.4815466771905E-05
(PID.TID 0000.0001) %MON dynstat_wvel_del2            =   7.1316458097815E-06
(PID.TID 0000.0001) %MON dynstat_theta_max            =   1.7020391872683E+01
(PID.TID 0000.0001) %MON dynstat_theta_min            =   1.6979608189020E+01
(PID.TID 0000.0001) %MON dynstat_theta_mean           =   1.6999999916873E+01
(PID.TID 0000.0001) %MON dynstat_theta_sd             =   1.8679305994308E-02
(PID.TID 0000.0001) %MON dynstat_theta_del2           =   1.9643285847789E-04
(PID.TID 0000.0001) %MON dynstat_salt_max             =   1.7020387109310E+01
(PID.TID 0000.0001) %MON dynstat_salt_min             =   1.6979612982850E+01
(PID.TID 0000.0001) %MON dynstat_salt_mean            =   1.7000000005832E+01
(PID.TID 0000.0001) %MON dynstat_salt_sd              =   1.8680439656299E-02
(PID.TID 0000.0001) %MON dynstat_salt_del2            =   2.0667534891894E-04
(PID.TID 0000.0001) %MON advcfl_uvel_max              =   1.6127876069241E-02
(PID.TID 0000.0001) %MON advcfl_vvel_max              =   6.1873272204812E-03
(PID.TID 0000.0001) %MON advcfl_wvel_max              =   2.8837512463774E-02
(PID.TID 0000.0001) %MON advcfl_W_hf_max              =   2.8837512463774E-02
(PID.TID 0000.0001) %MON pe_b_mean                    =   3.4191954570428E-09
(PID.TID 0000.0001) %MON ke_max                       =   9.0908458731904E-05
(PID.TID 0000.0001) %MON ke_mean                      =   4.7945687715993E-06
(PID.TID 0000.0001) %MON ke_vol                       =   2.5000000000000E+11
(PID.TID 0000.0001) %MON vort_r_min                   =  -6.5848246599459E-06
(PID.TID 0000.0001) %MON vort_r_max                   =   6.5583876149855E-06
(PID.TID 0000.0001) %MON vort_a_mean                  =   7.2900000000000E-05
(PID.TID 0000.0001) %MON vort_a_sd                    =   1.5736988481444E-06
(PID.TID 0000.0001) %MON vort_p_mean                  =   7.7363265306123E-05
(PID.TID 0000.0001) %MON vort_p_sd                    =   3.0964909002812E-05
(PID.TID 0000.0001) %MON surfExpan_theta_mean         =   3.0660974719191E-16
(PID.TID 0000.0001) %MON surfExpan_salt_mean          =  -2.3467614037478E-17
(PID.TID 0000.0001) // =======================================================
(PID.TID 0000.0001) // End MONITOR dynamic field statistics
(PID.TID 0000.0001) // =======================================================
 cg2d: Sum(rhs),rhsMax =   4.65224647000495E-13  8.08562615476150E-04
(PID.TID 0000.0001)                    cg2d_init_res =    4.47457531192571E-02
(PID.TID 0000.0001)                       cg2d_iters =    73
(PID.TID 0000.0001)                         cg2d_res =    6.60283641696746E-12
(PID.TID 0000.0001) // =======================================================
(PID.TID 0000.0001) // Begin MONITOR dynamic field statistics
(PID.TID 0000.0001) // =======================================================
(PID.TID 0000.0001) %MON time_tsnumber                =                    68
(PID.TID 0000.0001) %MON time_secondsf                =   8.1600000000000E+04
(PID.TID 0000.0001) %MON dynstat_eta_max              =   4.0193367715621E-04
(PID.TID 0000.0001) %MON dynstat_eta_min              =  -4.1355418663887E-04
(PID.TID 0000.0001) %MON dynstat_eta_mean             =  -6.3135264322112E-17
(PID.TID 0000.0001) %MON dynstat_eta_sd               =   3.7338825914600E-04
(PID.TID 0000.0001) %MON dynstat_eta_del2             =   3.8538554541708E-06
(PID.TID 0000.0001) %MON dynstat_uvel_max             =   1.2978695197423E-02
(PID.TID 0000.0001) %MON dynstat_uvel_min             =  -1.3059661817265E-02
(PID.TID 0000.0001) %MON dynstat_uvel_mean            =  -1.0111492935602E-06
(PID.TID 0000.0001) %MON dynstat_uvel_sd              =   2.6080144780170E-03
(PID.TID 0000.0001) %MON dynstat_uvel_del2            =   1.6612823042066E-04
(PID.TID 0000.0001) %MON dynstat_vvel_max             =   4.4947507654529E-03
(PID.TID 0000.0001) %MON dynstat_vvel_min             =  -4.3541204293275E-03
(PID.TID 0000.0001) %MON dynstat_vvel_mean            =  -5.7444299090664E-11
(PID.TID 0000.0001) %MON dynstat_vvel_sd              =   1.3296148127619E-03
(PID.TID 0000.0001) %MON dynstat_vvel_del2            =   1.1105057085553E-04
(PID.TID 0000.0001) %MON dynstat_wvel_max             =   1.1666887851971E-04
(PID.TID 0000.0001) %MON dynstat_wvel_min             =  -1.2227011032740E-04
(PID.TID 0000.0001) %MON dynstat_wvel_mean            =  -8.5217947145901E-23
(PID.TID 0000.0001) %MON dynstat_wvel_sd              =   4.3575813979062E-05
(PID.TID 0000.0001) %MON dynstat_wvel_del2            =   7.1080748420064E-06
(PID.TID 0000.0001) %MON dynstat_theta_max            =   1.7020391872683E+01
(PID.TID 0000.0001) %MON dynstat_theta_min            =   1.6979608189022E+01
(PID.TID 0000.0001) %MON dynstat_theta_mean           =   1.6999999916873E+01
(PID.TID 0000.0001) %MON dynstat_theta_sd             =   1.8679283452089E-02
(PID.TID 0000.0001) %MON dynstat_theta_del2           =   1.9646077662897E-04
(PID.TID 0000.0001) %MON dynstat_salt_max             =   1.7020387109310E+01
(PID.TID 0000.0001) %MON dynstat_salt_min             =   1.6979612982850E+01
(PID.TID 0000.0001) %MON dynstat_salt_mean            =   1.7000000005832E+01
(PID.TID 0000.0001) %MON dynstat_salt_sd              =   1.8680370681347E-02
(PID.TID 0000.0001) %MON dynstat_salt_del2            =   2.0697544144659E-04
(PID.TID 0000.0001) %MON advcfl_uvel_max              =   1.5671594180718E-02
(PID.TID 0000.0001) %MON advcfl_vvel_max              =   5.3937009185435E-03
(PID.TID 0000.0001) %MON advcfl_wvel_max              =   2.9344826478575E-02
(PID.TID 0000.0001) %MON advcfl_W_hf_max              =   2.9344826478575E-02
(PID.TID 0000.0001) %MON pe_b_mean                    =   3.4192458754696E-09
(PID.TID 0000.0001) %MON ke_max                       =   8.5603787838952E-05
(PID.TID 0000.0001) %MON ke_mean                      =   4.2494505341361E-06
(PID.TID 0000.0001) %MON ke_vol                       =   2.5000000000000E+11
(PID.TID 0000.0001) %MON vort_r_min                   =  -6.5133268843061E-06
(PID.TID 0000.0001) %MON vort_r_max                   =   6.4664695240939E-06
(PID.TID 0000.0001) %MON vort_a_mean                  =   7.2900000000000E-05
(PID.TID 0000.0001) %MON vort_a_sd                    =   1.5548270710449E-06
(PID.TID 0000.0001) %MON vort_p_mean                  =   7.7363265306122E-05
(PID.TID 0000.0001) %MON vort_p_sd                    =   3.0963901078865E-05
(PID.TID 0000.0001) %MON surfExpan_theta_mean         =  -5.4212622609794E-15
(PID.TID 0000.0001) %MON surfExpan_salt_mean          =  -2.5067236323622E-17
(PID.TID 0000.0001) // =======================================================
(PID.TID 0000.0001) // End MONITOR dynamic field statistics
(PID.TID 0000.0001) // =======================================================
 cg2d: Sum(rhs),rhsMax =   3.63104186475172E-13  8.09101145203516E-04
(PID.TID 0000.0001)                    cg2d_init_res =    3.97638101381262E-02
(PID.TID 0000.0001)                       cg2d_iters =    73
(PID.TID 0000.0001)                         cg2d_res =    5.60226840851711E-12
(PID.TID 0000.0001) // =======================================================
(PID.TID 0000.0001) // Begin MONITOR dynamic field statistics
(PID.TID 0000.0001) // =======================================================
(PID.TID 0000.0001) %MON time_tsnumber                =                    69
(PID.TID 0000.0001) %MON time_secondsf                =   8.2800000000000E+04
(PID.TID 0000.0001) %MON dynstat_eta_max              =   4.0189776742765E-04
(PID.TID 0000.0001) %MON dynstat_eta_min              =  -4.1359076922810E-04
(PID.TID 0000.0001) %MON dynstat_eta_mean             =  -6.8285821224756E-17
(PID.TID 0000.0001) %MON dynstat_eta_sd               =   3.7338976235179E-04
(PID.TID 0000.0001) %MON dynstat_eta_del2             =   3.8521255111396E-06
(PID.TID 0000.0001) %MON dynstat_uvel_max             =   1.2669568178230E-02
(PID.TID 0000.0001) %MON dynstat_uvel_min             =  -1.2754418162398E-02
(PID.TID 0000.0001) %MON dynstat_uvel_mean            =  -1.0076341165372E-06
(PID.TID 0000.0001) %MON dynstat_uvel_sd              =   2.5466056370457E-03
(PID.TID 0000.0001) %MON dynstat_uvel_del2            =   1.6576544640534E-04
(PID.TID 0000.0001) %MON dynstat_vvel_max             =   3.8227504314329E-03
(PID.TID 0000.0001) %MON dynstat_vvel_min             =  -3.6853545429684E-03
(PID.TID 0000.0001) %MON dynstat_vvel_mean            =  -3.9484545732103E-11
(PID.TID 0000.0001) %MON dynstat_vvel_sd              =   1.0994282891982E-03
(PID.TID 0000.0001) %MON dynstat_vvel_del2            =   1.0978889745469E-04
(PID.TID 0000.0001) %MON dynstat_wvel_max             =   1.2080101010164E-04
(PID.TID 0000.0001) %MON dynstat_wvel_min             =  -1.2634711013883E-04
(PID.TID 0000.0001) %MON dynstat_wvel_mean            =  -4.0211447772315E-22
(PID.TID 0000.0001) %MON dynstat_wvel_sd              =   4.2623836741378E-05
(PID.TID 0000.0001) %MON dynstat_wvel_del2            =   7.0842916475608E-06
(PID.TID 0000.0001) %MON dynstat_theta_max            =   1.7020391872683E+01
(PID.TID 0000.0001) %MON dynstat_theta_min            =   1.6979608189024E+01
(PID.TID 0000.0001) %MON dynstat_theta_mean           =   1.6999999916873E+01
(PID.TID 0000.0001) %MON dynstat_theta_sd             =   1.8679263412685E-02
(PID.TID 0000.0001) %MON dynstat_theta_del2           =   1.9648610823916E-04
(PID.TID 0000.0001) %MON dynstat_salt_max             =   1.7020387109310E+01
(PID.TID 0000.0001) %MON dynstat_salt_min             =   1.6979612982850E+01
(PID.TID 0000.0001) %MON dynstat_salt_mean            =   1.7000000005832E+01
(PID.TID 0000.0001) %MON dynstat_salt_sd              =   1.8680285999323E-02
(PID.TID 0000.0001) %MON dynstat_salt_del2            =   2.0730478385203E-04
(PID.TID 0000.0001) %MON advcfl_uvel_max              =   1.5305301794877E-02
(PID.TID 0000.0001) %MON advcfl_vvel_max              =   4.5873005177195E-03
(PID.TID 0000.0001) %MON advcfl_wvel_max              =   3.0323306433320E-02
(PID.TID 0000.0001) %MON advcfl_W_hf_max              =   3.0323306433320E-02
(PID.TID 0000.0001) %MON pe_b_mean                    =   3.4192734062793E-09
(PID.TID 0000.0001) %MON ke_max                       =   8.2105843735017E-05
(PID.TID 0000.0001) %MON ke_mean                      =   3.8227970732627E-06
(PID.TID 0000.0001) %MON ke_vol                       =   2.5000000000000E+11
(PID.TID 0000.0001) %MON vort_r_min                   =  -6.4503572651817E-06
(PID.TID 0000.0001) %MON vort_r_max                   =   6.3892815407015E-06
(PID.TID 0000.0001) %MON vort_a_mean                  =   7.2900000000000E-05
(PID.TID 0000.0001) %MON vort_a_sd                    =   1.5391656051119E-06
(PID.TID 0000.0001) %MON vort_p_mean                  =   7.7363265306122E-05
(PID.TID 0000.0001) %MON vort_p_sd                    =   3.0963074827156E-05
(PID.TID 0000.0001) %MON surfExpan_theta_mean         =  -1.4172095924478E-14
(PID.TID 0000.0001) %MON surfExpan_salt_mean          =  -4.9400859033864E-17
(PID.TID 0000.0001) // =======================================================
(PID.TID 0000.0001) // End MONITOR dynamic field statistics
(PID.TID 0000.0001) // =======================================================
 cg2d: Sum(rhs),rhsMax =   2.92421143723021E-13  8.09685250099867E-04
(PID.TID 0000.0001)                    cg2d_init_res =    3.53636373276164E-02
(PID.TID 0000.0001)                       cg2d_iters =    73
(PID.TID 0000.0001)                         cg2d_res =    4.93300914069289E-12
(PID.TID 0000.0001) // =======================================================
(PID.TID 0000.0001) // Begin MONITOR dynamic field statistics
(PID.TID 0000.0001) // =======================================================
(PID.TID 0000.0001) %MON time_tsnumber                =                    70
(PID.TID 0000.0001) %MON time_secondsf                =   8.4000000000000E+04
(PID.TID 0000.0001) %MON dynstat_eta_max              =   4.0186261127810E-04
(PID.TID 0000.0001) %MON dynstat_eta_min              =  -4.1362657785095E-04
(PID.TID 0000.0001) %MON dynstat_eta_mean             =  -7.1101029496257E-17
(PID.TID 0000.0001) %MON dynstat_eta_sd               =   3.7338990562215E-04
(PID.TID 0000.0001) %MON dynstat_eta_del2             =   3.8501949668741E-06
(PID.TID 0000.0001) %MON dynstat_uvel_max             =   1.2436567676319E-02
(PID.TID 0000.0001) %MON dynstat_uvel_min             =  -1.2525393737838E-02
(PID.TID 0000.0001) %MON dynstat_uvel_mean            =  -1.0042366403366E-06
(PID.TID 0000.0001) %MON dynstat_uvel_sd              =   2.5005070459743E-03
(PID.TID 0000.0001) %MON dynstat_uvel_del2            =   1.6542703964111E-04
(PID.TID 0000.0001) %MON dynstat_vvel_max             =   3.1454138262187E-03
(PID.TID 0000.0001) %MON dynstat_vvel_min             =  -3.0758844125713E-03
(PID.TID 0000.0001) %MON dynstat_vvel_mean            =  -2.1324893634154E-11
(PID.TID 0000.0001) %MON dynstat_vvel_sd              =   9.0133738736196E-04
(PID.TID 0000.0001) %MON dynstat_vvel_del2            =   1.0864579660316E-04
(PID.TID 0000.0001) %MON dynstat_wvel_max             =   1.2499222342436E-04
(PID.TID 0000.0001) %MON dynstat_wvel_min             =  -1.3045672767479E-04
(PID.TID 0000.0001) %MON dynstat_wvel_mean            =  -5.9520402235329E-23
(PID.TID 0000.0001) %MON dynstat_wvel_sd              =   4.2015123301873E-05
(PID.TID 0000.0001) %MON dynstat_wvel_del2            =   7.0602717244931E-06
(PID.TID 0000.0001) %MON dynstat_theta_max            =   1.7020391872683E+01
(PID.TID 0000.0001) %MON dynstat_theta_min            =   1.6979608189025E+01
(PID.TID 0000.0001) %MON dynstat_theta_mean           =   1.6999999916873E+01
(PID.TID 0000.0001) %MON dynstat_theta_sd             =   1.8679241927477E-02
(PID.TID 0000.0001) %MON dynstat_theta_del2           =   1.9650566373991E-04
(PID.TID 0000.0001) %MON dynstat_salt_max             =   1.7020387109310E+01
(PID.TID 0000.0001) %MON dynstat_salt_min             =   1.6979612982850E+01
(PID.TID 0000.0001) %MON dynstat_salt_mean            =   1.7000000005832E+01
(PID.TID 0000.0001) %MON dynstat_salt_sd              =   1.8680172195930E-02
(PID.TID 0000.0001) %MON dynstat_salt_del2            =   2.0774703289275E-04
(PID.TID 0000.0001) %MON advcfl_uvel_max              =   1.5030472485405E-02
(PID.TID 0000.0001) %MON advcfl_vvel_max              =   3.7744965914625E-03
(PID.TID 0000.0001) %MON advcfl_wvel_max              =   3.1309614641949E-02
(PID.TID 0000.0001) %MON advcfl_W_hf_max              =   3.1309614641949E-02
(PID.TID 0000.0001) %MON pe_b_mean                    =   3.4192760302432E-09
(PID.TID 0000.0001) %MON ke_max                       =   8.0409408294099E-05
(PID.TID 0000.0001) %MON ke_mean                      =   3.5162246089402E-06
(PID.TID 0000.0001) %MON ke_vol                       =   2.5000000000000E+11
(PID.TID 0000.0001) %MON vort_r_min                   =  -6.3960246385431E-06
(PID.TID 0000.0001) %MON vort_r_max                   =   6.3270138658261E-06
(PID.TID 0000.0001) %MON vort_a_mean                  =   7.2900000000001E-05
(PID.TID 0000.0001) %MON vort_a_sd                    =   1.5265648673971E-06
(PID.TID 0000.0001) %MON vort_p_mean                  =   7.7363265306123E-05
(PID.TID 0000.0001) %MON vort_p_sd                    =   3.0962417284765E-05
(PID.TID 0000.0001) %MON surfExpan_theta_mean         =  -2.5626713601157E-14
(PID.TID 0000.0001) %MON surfExpan_salt_mean          =  -9.1036924114105E-18
(PID.TID 0000.0001) // =======================================================
(PID.TID 0000.0001) // End MONITOR dynamic field statistics
(PID.TID 0000.0001) // =======================================================
 cg2d: Sum(rhs),rhsMax =   4.35363117085030E-13  8.10327906202328E-04
(PID.TID 0000.0001)                    cg2d_init_res =    3.19109274810353E-02
(PID.TID 0000.0001)                       cg2d_iters =    73
(PID.TID 0000.0001)                         cg2d_res =    5.59013721618262E-12
(PID.TID 0000.0001) // =======================================================
(PID.TID 0000.0001) // Begin MONITOR dynamic field statistics
(PID.TID 0000.0001) // =======================================================
(PID.TID 0000.0001) %MON time_tsnumber                =                    71
(PID.TID 0000.0001) %MON time_secondsf                =   8.5200000000000E+04
(PID.TID 0000.0001) %MON dynstat_eta_max              =   4.0182988171609E-04
(PID.TID 0000.0001) %MON dynstat_eta_min              =  -4.1365993817898E-04
(PID.TID 0000.0001) %MON dynstat_eta_mean             =  -8.2984603334002E-17
(PID.TID 0000.0001) %MON dynstat_eta_sd               =   3.7338855662744E-04
(PID.TID 0000.0001) %MON dynstat_eta_del2             =   3.8480082248075E-06
(PID.TID 0000.0001) %MON dynstat_uvel_max             =   1.2280380921495E-02
(PID.TID 0000.0001) %MON dynstat_uvel_min             =  -1.2373231975777E-02
(PID.TID 0000.0001) %MON dynstat_uvel_mean            =  -1.0009687059950E-06
(PID.TID 0000.0001) %MON dynstat_uvel_sd              =   2.4686064180398E-03
(PID.TID 0000.0001) %MON dynstat_uvel_del2            =   1.6509373384303E-04
(PID.TID 0000.0001) %MON dynstat_vvel_max             =   3.4658596434624E-03
(PID.TID 0000.0001) %MON dynstat_vvel_min             =  -3.4732843701872E-03
(PID.TID 0000.0001) %MON dynstat_vvel_mean            =  -2.5847933104078E-12
(PID.TID 0000.0001) %MON dynstat_vvel_sd              =   7.6843302833863E-04
(PID.TID 0000.0001) %MON dynstat_vvel_del2            =   1.0762843937244E-04
(PID.TID 0000.0001) %MON dynstat_wvel_max             =   1.2920250815412E-04
(PID.TID 0000.0001) %MON dynstat_wvel_min             =  -1.3455914702388E-04
(PID.TID 0000.0001) %MON dynstat_wvel_mean            =   6.8860341632818E-22
(PID.TID 0000.0001) %MON dynstat_wvel_sd              =   4.1789429458624E-05
(PID.TID 0000.0001) %MON dynstat_wvel_del2            =   7.0364090099330E-06
(PID.TID 0000.0001) %MON dynstat_theta_max            =   1.7020391872683E+01
(PID.TID 0000.0001) %MON dynstat_theta_min            =   1.6979608189025E+01
(PID.TID 0000.0001) %MON dynstat_theta_mean           =   1.6999999916874E+01
(PID.TID 0000.0001) %MON dynstat_theta_sd             =   1.8679214637530E-02
(PID.TID 0000.0001) %MON dynstat_theta_del2           =   1.9651579717615E-04
(PID.TID 0000.0001) %MON dynstat_salt_max             =   1.7020387109310E+01
(PID.TID 0000.0001) %MON dynstat_salt_min             =   1.6979612982850E+01
(PID.TID 0000.0001) %MON dynstat_salt_mean            =   1.7000000005832E+01
(PID.TID 0000.0001) %MON dynstat_salt_sd              =   1.8680054753962E-02
(PID.TID 0000.0001) %MON dynstat_salt_del2            =   2.0803775740520E-04
(PID.TID 0000.0001) %MON advcfl_uvel_max              =   1.4847878370932E-02
(PID.TID 0000.0001) %MON advcfl_vvel_max              =   4.1679412442247E-03
(PID.TID 0000.0001) %MON advcfl_wvel_max              =   3.2294195285731E-02
(PID.TID 0000.0001) %MON advcfl_W_hf_max              =   3.2294195285731E-02
(PID.TID 0000.0001) %MON pe_b_mean                    =   3.4192513237534E-09
(PID.TID 0000.0001) %MON ke_max                       =   8.0495480081249E-05
(PID.TID 0000.0001) %MON ke_mean                      =   3.3304441977030E-06
(PID.TID 0000.0001) %MON ke_vol                       =   2.5000000000000E+11
(PID.TID 0000.0001) %MON vort_r_min                   =  -6.3503842809189E-06
(PID.TID 0000.0001) %MON vort_r_max                   =   6.2797310194536E-06
(PID.TID 0000.0001) %MON vort_a_mean                  =   7.2900000000000E-05
(PID.TID 0000.0001) %MON vort_a_sd                    =   1.5168864201289E-06
(PID.TID 0000.0001) %MON vort_p_mean                  =   7.7363265306123E-05
(PID.TID 0000.0001) %MON vort_p_sd                    =   3.0961917318604E-05
(PID.TID 0000.0001) %MON surfExpan_theta_mean         =  -3.9805092442465E-14
(PID.TID 0000.0001) %MON surfExpan_salt_mean          =  -2.0030284084297E-17
(PID.TID 0000.0001) // =======================================================
(PID.TID 0000.0001) // End MONITOR dynamic field statistics
(PID.TID 0000.0001) // =======================================================
 cg2d: Sum(rhs),rhsMax =   4.45574458406151E-13  8.11047819422902E-04
(PID.TID 0000.0001)                    cg2d_init_res =    2.99608015258849E-02
(PID.TID 0000.0001)                       cg2d_iters =    74
(PID.TID 0000.0001)                         cg2d_res =    7.08725520448183E-12
(PID.TID 0000.0001) // =======================================================
(PID.TID 0000.0001) // Begin MONITOR dynamic field statistics
(PID.TID 0000.0001) // =======================================================
(PID.TID 0000.0001) %MON time_tsnumber                =                    72
(PID.TID 0000.0001) %MON time_secondsf                =   8.6400000000000E+04
(PID.TID 0000.0001) %MON dynstat_eta_max              =   4.0180071524420E-04
(PID.TID 0000.0001) %MON dynstat_eta_min              =  -4.1368971068883E-04
(PID.TID 0000.0001) %MON dynstat_eta_mean             =  -7.8370205866540E-17
(PID.TID 0000.0001) %MON dynstat_eta_sd               =   3.7338558966959E-04
(PID.TID 0000.0001) %MON dynstat_eta_del2             =   3.8455279432249E-06
(PID.TID 0000.0001) %MON dynstat_uvel_max             =   1.2201135598438E-02
(PID.TID 0000.0001) %MON dynstat_uvel_min             =  -1.2297992986725E-02
(PID.TID 0000.0001) %MON dynstat_uvel_mean            =  -9.9784114297959E-07
(PID.TID 0000.0001) %MON dynstat_uvel_sd              =   2.4501599026568E-03
(PID.TID 0000.0001) %MON dynstat_uvel_del2            =   1.6475919619085E-04
(PID.TID 0000.0001) %MON dynstat_vvel_max             =   4.3412290658972E-03
(PID.TID 0000.0001) %MON dynstat_vvel_min             =  -4.3449632449587E-03
(PID.TID 0000.0001) %MON dynstat_vvel_mean            =   1.6890413116322E-11
(PID.TID 0000.0001) %MON dynstat_vvel_sd              =   7.4108838021996E-04
(PID.TID 0000.0001) %MON dynstat_vvel_del2            =   1.0680454836622E-04
(PID.TID 0000.0001) %MON dynstat_wvel_max             =   1.3339078011625E-04
(PID.TID 0000.0001) %MON dynstat_wvel_min             =  -1.3861448902084E-04
(PID.TID 0000.0001) %MON dynstat_wvel_mean            =  -6.0601216343703E-22
(PID.TID 0000.0001) %MON dynstat_wvel_sd              =   4.1965586499350E-05
(PID.TID 0000.0001) %MON dynstat_wvel_del2            =   7.0125391168717E-06
(PID.TID 0000.0001) %MON dynstat_theta_max            =   1.7020391872683E+01
(PID.TID 0000.0001) %MON dynstat_theta_min            =   1.6979608189026E+01
(PID.TID 0000.0001) %MON dynstat_theta_mean           =   1.6999999916874E+01
(PID.TID 0000.0001) %MON dynstat_theta_sd             =   1.8679179570561E-02
(PID.TID 0000.0001) %MON dynstat_theta_del2           =   1.9651560831687E-04
(PID.TID 0000.0001) %MON dynstat_salt_max             =   1.7020387109310E+01
(PID.TID 0000.0001) %MON dynstat_salt_min             =   1.6979612982849E+01
(PID.TID 0000.0001) %MON dynstat_salt_mean            =   1.7000000005832E+01
(PID.TID 0000.0001) %MON dynstat_salt_sd              =   1.8679864993500E-02
(PID.TID 0000.0001) %MON dynstat_salt_del2            =   2.0860464067105E-04
(PID.TID 0000.0001) %MON advcfl_uvel_max              =   1.4757591584070E-02
(PID.TID 0000.0001) %MON advcfl_vvel_max              =   5.2139558939505E-03
(PID.TID 0000.0001) %MON advcfl_wvel_max              =   3.3267477365001E-02
(PID.TID 0000.0001) %MON advcfl_W_hf_max              =   3.3267477365001E-02
(PID.TID 0000.0001) %MON pe_b_mean                    =   3.4191969850005E-09
(PID.TID 0000.0001) %MON ke_max                       =   8.2331489608882E-05
(PID.TID 0000.0001) %MON ke_mean                      =   3.2652640260396E-06
(PID.TID 0000.0001) %MON ke_vol                       =   2.5000000000000E+11
(PID.TID 0000.0001) %MON vort_r_min                   =  -6.3134386112684E-06
(PID.TID 0000.0001) %MON vort_r_max                   =   6.2473685009636E-06
(PID.TID 0000.0001) %MON vort_a_mean                  =   7.2900000000001E-05
(PID.TID 0000.0001) %MON vort_a_sd                    =   1.5100110935298E-06
(PID.TID 0000.0001) %MON vort_p_mean                  =   7.7363265306123E-05
(PID.TID 0000.0001) %MON vort_p_sd                    =   3.0961565880254E-05
(PID.TID 0000.0001) %MON surfExpan_theta_mean         =  -5.6184516372570E-14
(PID.TID 0000.0001) %MON surfExpan_salt_mean          =  -9.2479141621749E-18
(PID.TID 0000.0001) // =======================================================
(PID.TID 0000.0001) // End MONITOR dynamic field statistics
(PID.TID 0000.0001) // =======================================================
 Computing Diagnostic # 267  UVELSLT      Counter:   72      Parms: UU   268MR      
           Vector  Mate for  UVELSLT      Diagnostic # 268  VVELSLT  exists 
 Computing Diagnostic # 268  VVELSLT      Counter:   72      Parms: VV   267MR      
           Vector  Mate for  VVELSLT      Diagnostic # 267  UVELSLT  exists 
 Computing Diagnostic # 269  WVELSLT      Counter:   72      Parms: WM      LR      
 Computing Diagnostic # 264  UVELTH       Counter:   72      Parms: UU   265MR      
           Vector  Mate for  UVELTH       Diagnostic # 265  VVELTH   exists 
 Computing Diagnostic # 265  VVELTH       Counter:   72      Parms: VV   264MR      
           Vector  Mate for  VVELTH       Diagnostic # 264  UVELTH   exists 
 Computing Diagnostic # 266  WVELTH       Counter:   72      Parms: WM      LR      
(PID.TID 0000.0001) %CHECKPOINT        72 0000000072
(PID.TID 0000.0001)   Seconds in section "ALL                    [THE_MODEL_MAIN]":
(PID.TID 0000.0001)           User time: 16.5699996948242188
(PID.TID 0000.0001)         System time: 3.39000009559094906
(PID.TID 0000.0001)     Wall clock time: 19.7320921421051025
(PID.TID 0000.0001)          No. starts: 1
(PID.TID 0000.0001)           No. stops: 1
(PID.TID 0000.0001)   Seconds in section "INITIALISE_FIXED       [THE_MODEL_MAIN]":
(PID.TID 0000.0001)           User time: 0.239999994635581970
(PID.TID 0000.0001)         System time: 0.190000003203749657
(PID.TID 0000.0001)     Wall clock time: 0.428064107894897461
(PID.TID 0000.0001)          No. starts: 1
(PID.TID 0000.0001)           No. stops: 1
(PID.TID 0000.0001)   Seconds in section "THE_MAIN_LOOP          [THE_MODEL_MAIN]":
(PID.TID 0000.0001)           User time: 16.3299997001886368
(PID.TID 0000.0001)         System time: 3.20000009238719940
(PID.TID 0000.0001)     Wall clock time: 19.3038418292999268
(PID.TID 0000.0001)          No. starts: 1
(PID.TID 0000.0001)           No. stops: 1
(PID.TID 0000.0001)   Seconds in section "INITIALISE_VARIA    [THE_MAIN_LOOP]":
(PID.TID 0000.0001)           User time: 0.199999958276748657E-01
(PID.TID 0000.0001)         System time: 0.599999874830245972E-01
(PID.TID 0000.0001)     Wall clock time: 0.850279331207275391E-01
(PID.TID 0000.0001)          No. starts: 1
(PID.TID 0000.0001)           No. stops: 1
(PID.TID 0000.0001)   Seconds in section "MONITOR             [THE_MAIN_LOOP]":
(PID.TID 0000.0001)           User time: 0.100000202655792236E-01
(PID.TID 0000.0001)         System time: 0.000000000000000000E+00
(PID.TID 0000.0001)     Wall clock time: 0.128891468048095703E-01
(PID.TID 0000.0001)          No. starts: 1
(PID.TID 0000.0001)           No. stops: 1
(PID.TID 0000.0001)   Seconds in section "DO_THE_MODEL_IO     [THE_MAIN_LOOP]":
(PID.TID 0000.0001)           User time: 0.300000011920928955E-01
(PID.TID 0000.0001)         System time: 0.400000214576721191E-01
(PID.TID 0000.0001)     Wall clock time: 0.688719749450683594E-01
(PID.TID 0000.0001)          No. starts: 1
(PID.TID 0000.0001)           No. stops: 1
(PID.TID 0000.0001)   Seconds in section "MAIN LOOP           [THE_MAIN_LOOP]":
(PID.TID 0000.0001)           User time: 16.2699996829032898
(PID.TID 0000.0001)         System time: 3.10000008344650269
(PID.TID 0000.0001)     Wall clock time: 19.1368780136108398
(PID.TID 0000.0001)          No. starts: 1
(PID.TID 0000.0001)           No. stops: 1
(PID.TID 0000.0001)   Seconds in section "FORWARD_STEP        [THE_MAIN_LOOP]":
(PID.TID 0000.0001)           User time: 16.2699996829032898
(PID.TID 0000.0001)         System time: 3.10000008344650269
(PID.TID 0000.0001)     Wall clock time: 19.1346406936645508
(PID.TID 0000.0001)          No. starts: 72
(PID.TID 0000.0001)           No. stops: 72
(PID.TID 0000.0001)   Seconds in section "DO_STATEVARS_DIAGS  [FORWARD_STEP]":
(PID.TID 0000.0001)           User time: 0.450000047683715820
(PID.TID 0000.0001)         System time: 0.000000000000000000E+00
(PID.TID 0000.0001)     Wall clock time: 0.489028453826904297
(PID.TID 0000.0001)          No. starts: 144
(PID.TID 0000.0001)           No. stops: 144
(PID.TID 0000.0001)   Seconds in section "EXTERNAL_FIELDS_LOAD[FORWARD_STEP]":
(PID.TID 0000.0001)           User time: 0.999999046325683594E-02
(PID.TID 0000.0001)         System time: 0.000000000000000000E+00
(PID.TID 0000.0001)     Wall clock time: 0.221967697143554688E-02
(PID.TID 0000.0001)          No. starts: 72
(PID.TID 0000.0001)           No. stops: 72
(PID.TID 0000.0001)   Seconds in section "DO_ATMOSPHERIC_PHYS [FORWARD_STEP]":
(PID.TID 0000.0001)           User time: 0.000000000000000000E+00
(PID.TID 0000.0001)         System time: 0.000000000000000000E+00
(PID.TID 0000.0001)     Wall clock time: 0.211429595947265625E-02
(PID.TID 0000.0001)          No. starts: 72
(PID.TID 0000.0001)           No. stops: 72
(PID.TID 0000.0001)   Seconds in section "DO_OCEANIC_PHYS     [FORWARD_STEP]":
(PID.TID 0000.0001)           User time: 0.359999716281890869
(PID.TID 0000.0001)         System time: 0.299999713897705078E-01
(PID.TID 0000.0001)     Wall clock time: 0.336451292037963867
(PID.TID 0000.0001)          No. starts: 72
(PID.TID 0000.0001)           No. stops: 72
(PID.TID 0000.0001)   Seconds in section "DYNAMICS            [FORWARD_STEP]":
(PID.TID 0000.0001)           User time: 7.38000005483627319
(PID.TID 0000.0001)         System time: 1.23999947309494019
(PID.TID 0000.0001)     Wall clock time: 8.40919017791748047
(PID.TID 0000.0001)          No. starts: 72
(PID.TID 0000.0001)           No. stops: 72
(PID.TID 0000.0001)   Seconds in section "SOLVE_FOR_PRESSURE  [FORWARD_STEP]":
(PID.TID 0000.0001)           User time: 0.230000197887420654
(PID.TID 0000.0001)         System time: 0.000000000000000000E+00
(PID.TID 0000.0001)     Wall clock time: 0.244231700897216797
(PID.TID 0000.0001)          No. starts: 72
(PID.TID 0000.0001)           No. stops: 72
(PID.TID 0000.0001)   Seconds in section "UV_CORRECTION_STEP  [FORWARD_STEP]":
(PID.TID 0000.0001)           User time: 0.179997444152832031
(PID.TID 0000.0001)         System time: 0.000000000000000000E+00
(PID.TID 0000.0001)     Wall clock time: 0.235915184020996094
(PID.TID 0000.0001)          No. starts: 72
(PID.TID 0000.0001)           No. stops: 72
(PID.TID 0000.0001)   Seconds in section "BLOCKING_EXCHANGES  [FORWARD_STEP]":
(PID.TID 0000.0001)           User time: 0.100001215934753418
(PID.TID 0000.0001)         System time: 0.000000000000000000E+00
(PID.TID 0000.0001)     Wall clock time: 0.158889532089233398
(PID.TID 0000.0001)          No. starts: 144
(PID.TID 0000.0001)           No. stops: 144
(PID.TID 0000.0001)   Seconds in section "THERMODYNAMICS      [FORWARD_STEP]":
(PID.TID 0000.0001)           User time: 4.18000113964080811
(PID.TID 0000.0001)         System time: 0.000000000000000000E+00
(PID.TID 0000.0001)     Wall clock time: 4.05868172645568848
(PID.TID 0000.0001)          No. starts: 72
(PID.TID 0000.0001)           No. stops: 72
(PID.TID 0000.0001)   Seconds in section "TS_CORRECTION_STEP  [FORWARD_STEP]":
(PID.TID 0000.0001)           User time: 0.600004196166992188E-01
(PID.TID 0000.0001)         System time: 0.000000000000000000E+00
(PID.TID 0000.0001)     Wall clock time: 0.808734893798828125E-01
(PID.TID 0000.0001)          No. starts: 72
(PID.TID 0000.0001)           No. stops: 72
(PID.TID 0000.0001)   Seconds in section "DO_STATEVARS_TAVE   [FORWARD_STEP]":
(PID.TID 0000.0001)           User time: 0.740001618862152100
(PID.TID 0000.0001)         System time: 0.000000000000000000E+00
(PID.TID 0000.0001)     Wall clock time: 0.693469047546386719
(PID.TID 0000.0001)          No. starts: 72
(PID.TID 0000.0001)           No. stops: 72
(PID.TID 0000.0001)   Seconds in section "MONITOR             [FORWARD_STEP]":
(PID.TID 0000.0001)           User time: 0.909996330738067627
(PID.TID 0000.0001)         System time: 0.200002193450927734E-01
(PID.TID 0000.0001)     Wall clock time: 0.930768251419067383
(PID.TID 0000.0001)          No. starts: 72
(PID.TID 0000.0001)           No. stops: 72
(PID.TID 0000.0001)   Seconds in section "DO_THE_MODEL_IO     [FORWARD_STEP]":
(PID.TID 0000.0001)           User time: 1.51000237464904785
(PID.TID 0000.0001)         System time: 1.57000041007995605
(PID.TID 0000.0001)     Wall clock time: 3.10852646827697754
(PID.TID 0000.0001)          No. starts: 72
(PID.TID 0000.0001)           No. stops: 72
(PID.TID 0000.0001)   Seconds in section "WRITE_CHECKPOINT    [FORWARD_STEP]":
(PID.TID 0000.0001)           User time: 0.109999656677246094
(PID.TID 0000.0001)         System time: 0.240000009536743164
(PID.TID 0000.0001)     Wall clock time: 0.346304178237915039
(PID.TID 0000.0001)          No. starts: 72
(PID.TID 0000.0001)           No. stops: 72
(PID.TID 0000.0001)   Seconds in section "WRITE_CHECKPOINT       [THE_MODEL_MAIN]":
(PID.TID 0000.0001)           User time: 0.000000000000000000E+00
(PID.TID 0000.0001)         System time: 0.000000000000000000E+00
(PID.TID 0000.0001)     Wall clock time: 0.450611114501953125E-04
(PID.TID 0000.0001)          No. starts: 1
(PID.TID 0000.0001)           No. stops: 1
(PID.TID 0000.0001) // ======================================================
(PID.TID 0000.0001) // Tile <-> Tile communication statistics
(PID.TID 0000.0001) // ======================================================
(PID.TID 0000.0001) // o Tile number: 000001
(PID.TID 0000.0001) //         No. X exchanges =              0
(PID.TID 0000.0001) //            Max. X spins =              0
(PID.TID 0000.0001) //            Min. X spins =     1000000000
(PID.TID 0000.0001) //          Total. X spins =              0
(PID.TID 0000.0001) //            Avg. X spins =       0.00E+00
(PID.TID 0000.0001) //         No. Y exchanges =              0
(PID.TID 0000.0001) //            Max. Y spins =              0
(PID.TID 0000.0001) //            Min. Y spins =     1000000000
(PID.TID 0000.0001) //          Total. Y spins =              0
(PID.TID 0000.0001) //            Avg. Y spins =       0.00E+00
(PID.TID 0000.0001) // o Thread number: 000001
(PID.TID 0000.0001) //            No. barriers =          88462
(PID.TID 0000.0001) //      Max. barrier spins =              1
(PID.TID 0000.0001) //      Min. barrier spins =              1
(PID.TID 0000.0001) //     Total barrier spins =          88462
(PID.TID 0000.0001) //      Avg. barrier spins =       1.00E+00
