(PID.TID 0000.0001) 
(PID.TID 0000.0001) // ======================================================
(PID.TID 0000.0001) //                      MITgcm UV
(PID.TID 0000.0001) //                      =========
(PID.TID 0000.0001) // ======================================================
(PID.TID 0000.0001) // execution environment starting up...
(PID.TID 0000.0001) 
(PID.TID 0000.0001) // MITgcmUV version:  checkpoint57e_post
(PID.TID 0000.0001) // Build user:        baylor
(PID.TID 0000.0001) // Build host:        TWO.MIT.EDU
(PID.TID 0000.0001) // Build date:        Wed Mar  9 22:13:44 EST 2005
(PID.TID 0000.0001) 
(PID.TID 0000.0001) // =======================================================
(PID.TID 0000.0001) // Execution Environment parameter file "eedata"
(PID.TID 0000.0001) // =======================================================
(PID.TID 0000.0001) ># Example "eedata" file
(PID.TID 0000.0001) ># Lines beginning "#" are comments
(PID.TID 0000.0001) ># nTx - No. threads per process in X
(PID.TID 0000.0001) ># nTy - No. threads per process in Y
(PID.TID 0000.0001) > &EEPARMS
(PID.TID 0000.0001) > /
(PID.TID 0000.0001) ># Note: Some systems use & as the
(PID.TID 0000.0001) ># namelist terminator. Other systems
(PID.TID 0000.0001) ># use a & character (as shown here).
(PID.TID 0000.0001) 
(PID.TID 0000.0001) // =======================================================
(PID.TID 0000.0001) // Computational Grid Specification ( see files "SIZE.h" )
(PID.TID 0000.0001) //                                  ( and "eedata"       )
(PID.TID 0000.0001) // =======================================================
(PID.TID 0000.0001)      nPx =    1 ; /* No. processes in X */
(PID.TID 0000.0001)      nPy =    1 ; /* No. processes in Y */
(PID.TID 0000.0001)      nSx =    1 ; /* No. tiles in X per process */
(PID.TID 0000.0001)      nSy =    1 ; /* No. tiles in Y per process */
(PID.TID 0000.0001)      sNx =   50 ; /* Tile size in X */
(PID.TID 0000.0001)      sNy =   26 ; /* Tile size in Y */
(PID.TID 0000.0001)      OLx =    3 ; /* Tile overlap distance in X */
(PID.TID 0000.0001)      OLy =    3 ; /* Tile overlap distance in Y */
(PID.TID 0000.0001)      nTx =    1 ; /* No. threads in X per process */
(PID.TID 0000.0001)      nTy =    1 ; /* No. threads in Y per process */
(PID.TID 0000.0001)       Nr =   40 ; /* No. levels in the vertical   */
(PID.TID 0000.0001)       nX =   50 ; /* Total domain size in X ( = nPx*nSx*sNx ) */
(PID.TID 0000.0001)       nY =   26 ; /* Total domain size in Y ( = nPy*nSy*sNy ) */
(PID.TID 0000.0001)   nTiles =    1 ; /* Total no. tiles per process ( = nSx*nSy ) */
(PID.TID 0000.0001)   nProcs =    1 ; /* Total no. processes ( = nPx*nPy ) */
(PID.TID 0000.0001) nThreads =    1 ; /* Total no. threads per process ( = nTx*nTy ) */
(PID.TID 0000.0001) usingMPI =    F ; /* Flag used to control whether MPI is in use */
(PID.TID 0000.0001)                   /*  note: To execute a program with MPI calls */
(PID.TID 0000.0001)                   /*  it must be launched appropriately e.g     */
(PID.TID 0000.0001)                   /*  "mpirun -np 64 ......"                    */
(PID.TID 0000.0001) useCoupler=   F ; /* Flag used to control communications with */
(PID.TID 0000.0001)                   /*  other model components, through a coupler */
(PID.TID 0000.0001) 
(PID.TID 0000.0001) // ======================================================
(PID.TID 0000.0001) // Mapping of tiles to threads
(PID.TID 0000.0001) // ======================================================
(PID.TID 0000.0001) // -o- Thread   1, tiles (   1:   1,   1:   1)
(PID.TID 0000.0001) 
(PID.TID 0000.0001) // ======================================================
(PID.TID 0000.0001) // Tile <-> Tile connectvity table
(PID.TID 0000.0001) // ======================================================
(PID.TID 0000.0001) // Tile number: 000001 (process no. = 000001)
(PID.TID 0000.0001) //        WEST: Tile = 000001, Process = 000001, Comm = put
(PID.TID 0000.0001) //                bi = 000001, bj = 000001
(PID.TID 0000.0001) //        EAST: Tile = 000001, Process = 000001, Comm = put
(PID.TID 0000.0001) //                bi = 000001, bj = 000001
(PID.TID 0000.0001) //       SOUTH: Tile = 000001, Process = 000001, Comm = put
(PID.TID 0000.0001) //                bi = 000001, bj = 000001
(PID.TID 0000.0001) //       NORTH: Tile = 000001, Process = 000001, Comm = put
(PID.TID 0000.0001) //                bi = 000001, bj = 000001
(PID.TID 0000.0001) 
(PID.TID 0000.0001) // =======================================================
(PID.TID 0000.0001) // Model parameter file "data"
(PID.TID 0000.0001) // =======================================================
(PID.TID 0000.0001) ># ====================
(PID.TID 0000.0001) ># | Model parameters |
(PID.TID 0000.0001) ># ====================
(PID.TID 0000.0001) >#
(PID.TID 0000.0001) ># Continuous equation parameters
(PID.TID 0000.0001) > &PARM01
(PID.TID 0000.0001) > viscAr=5.E-3,
(PID.TID 0000.0001) ># This is the minimum viscosity used total=viscah+viscleith
(PID.TID 0000.0001) ># Often U*deltaX/2 for grid noise (Griffies and Hallberg,2000)
(PID.TID 0000.0001) ># viscAh=3.E1,
(PID.TID 0000.0001) ># This is the standard Leith Viscosity, prop to grad(curl v_h)
(PID.TID 0000.0001) ># viscC2leith=5.,
(PID.TID 0000.0001) ># This is an additional Leith Viscosity, prop to grad(div.v_h)
(PID.TID 0000.0001) ># It traps instabilities that have no signal in grad(curl v_h)
(PID.TID 0000.0001) ># viscC2leithD=5.,
(PID.TID 0000.0001) ># These are the minimum viscosities used with Smagorinsky
(PID.TID 0000.0001) ># total=viscastrain+viscsmag, etc.
(PID.TID 0000.0001) > viscAstrain=3.E1,
(PID.TID 0000.0001) > viscAtension=3.E1,
(PID.TID 0000.0001) ># This is harmonic Smagorinsky Coefficient
(PID.TID 0000.0001) ># 0.15=value from 3-d turbulence theory;
(PID.TID 0000.0001) ># 3-4=stable oceanic values (Griffies and Hallberg, 2000)
(PID.TID 0000.0001) > viscC2Smag=4.,
(PID.TID 0000.0001) ># This is the max Viscosity used, be it Smag or Leith, and it scales
(PID.TID 0000.0001) ># with grid size and timestep
(PID.TID 0000.0001) ># Often 0.5 for stability (Griffies and Hallberg,2000)
(PID.TID 0000.0001) > viscAhGridMax=0.5,
(PID.TID 0000.0001) > useFullLeith=.TRUE.,
(PID.TID 0000.0001) > no_slip_sides=.FALSE.,
(PID.TID 0000.0001) > no_slip_bottom=.FALSE.,
(PID.TID 0000.0001) > ivdc_kappa=10.,
(PID.TID 0000.0001) > implicitDiffusion=.TRUE.,
(PID.TID 0000.0001) > implicitViscosity=.TRUE.,
(PID.TID 0000.0001) > f0=7.29e-5,
(PID.TID 0000.0001) > beta=0.E-11,
(PID.TID 0000.0001) > eosType='LINEAR',
(PID.TID 0000.0001) ># Using Temperature as only Active Tracer
(PID.TID 0000.0001) > tAlpha=2.E-4,
(PID.TID 0000.0001) ># Using Salinity as Spice
(PID.TID 0000.0001) > sBeta =0.E-4,
(PID.TID 0000.0001) > saltStepping=.TRUE.,
(PID.TID 0000.0001) > gravity=9.81,
(PID.TID 0000.0001) > rhonil=1035.,
(PID.TID 0000.0001) > implicitFreeSurface=.TRUE.,
(PID.TID 0000.0001) > usejamartwetpoints=.TRUE.,
(PID.TID 0000.0001) > rigidLid=.FALSE.,
(PID.TID 0000.0001) > staggerTimeStep=.TRUE.,
(PID.TID 0000.0001) > readBinaryPrec=64,
(PID.TID 0000.0001) > writeBinaryPrec=64,
(PID.TID 0000.0001) > tempAdvScheme=33,
(PID.TID 0000.0001) > saltAdvScheme=33,
(PID.TID 0000.0001) > nonHydrostatic=.FALSE.,
(PID.TID 0000.0001) > vectorInvariantMomentum=.TRUE.,
(PID.TID 0000.0001) > /
(PID.TID 0000.0001) >
(PID.TID 0000.0001) ># Elliptic solver parameters
(PID.TID 0000.0001) > &PARM02
(PID.TID 0000.0001) > cg2dMaxIters=1000,
(PID.TID 0000.0001) > cg2dTargetResidual=1.E-11,
(PID.TID 0000.0001) > cg3dMaxIters=40,
(PID.TID 0000.0001) > cg3dTargetResidual=1.E-9,
(PID.TID 0000.0001) > /
(PID.TID 0000.0001) >
(PID.TID 0000.0001) ># Time stepping parameters
(PID.TID 0000.0001) > &PARM03
(PID.TID 0000.0001) > niter0=0,
(PID.TID 0000.0001) > endTime=86400.,
(PID.TID 0000.0001) > deltaT=1200.,
(PID.TID 0000.0001) > abEps=0.01,
(PID.TID 0000.0001) > pchkptFreq=43200.,
(PID.TID 0000.0001) > taveFreq=7200.,
(PID.TID 0000.0001) > dumpFreq=7200.,
(PID.TID 0000.0001) > diagFreq=7200.,
(PID.TID 0000.0001) > monitorFreq=1200.,
(PID.TID 0000.0001) > cadjfreq=0.,
(PID.TID 0000.0001) > /
(PID.TID 0000.0001) >
(PID.TID 0000.0001) ># Gridding parameters
(PID.TID 0000.0001) > &PARM04
(PID.TID 0000.0001) > usingCartesianGrid=.TRUE.,
(PID.TID 0000.0001) > usingSphericalPolarGrid=.FALSE.,
(PID.TID 0000.0001) >  delR= 5d0, 5d0, 5d0, 5d0, 5d0,
(PID.TID 0000.0001) >    5d0, 5d0, 5d0, 5d0, 5d0,
(PID.TID 0000.0001) >    5d0, 5d0, 5d0, 5d0, 5d0,
(PID.TID 0000.0001) >    5d0, 5d0, 5d0, 5d0, 5d0,
(PID.TID 0000.0001) >    5d0, 5d0, 5d0, 5d0, 5d0,
(PID.TID 0000.0001) >    5d0, 5d0, 5d0, 5d0, 5d0,
(PID.TID 0000.0001) >    5d0, 5d0, 5d0, 5d0, 5d0,
(PID.TID 0000.0001) >    5d0, 5d0, 5d0, 5d0, 5d0,
(PID.TID 0000.0001) > dxspacing=1d3,
(PID.TID 0000.0001) > dyspacing=1d3,
(PID.TID 0000.0001) > /
(PID.TID 0000.0001) >
(PID.TID 0000.0001) ># Input datasets
(PID.TID 0000.0001) > &PARM05
(PID.TID 0000.0001) > bathyFile='topo_sl.bin',
(PID.TID 0000.0001) > hydrogThetaFile='thetaInitial.bin',
(PID.TID 0000.0001) > hydrogSaltFile='spiceInitial.bin',
(PID.TID 0000.0001) > /
(PID.TID 0000.0001) >
(PID.TID 0000.0001) 
(PID.TID 0000.0001) S/R INI_PARMS ; starts to read PARM01
(PID.TID 0000.0001) S/R INI_PARMS ; read PARM01 : OK
(PID.TID 0000.0001) S/R INI_PARMS ; starts to read PARM02
(PID.TID 0000.0001) S/R INI_PARMS ; read PARM02 : OK
(PID.TID 0000.0001) S/R INI_PARMS ; starts to read PARM03
(PID.TID 0000.0001) S/R INI_PARMS ; read PARM03 : OK
(PID.TID 0000.0001) S/R INI_PARMS ; starts to read PARM04
(PID.TID 0000.0001) S/R INI_PARMS ; read PARM04 : OK
(PID.TID 0000.0001) S/R INI_PARMS ; starts to read PARM05
(PID.TID 0000.0001) S/R INI_PARMS ; read PARM05 : OK
(PID.TID 0000.0001)  PACKAGES_BOOT: opening data.pkg
(PID.TID 0000.0001)  OPEN_COPY_DATA_FILE: opening file data.pkg
(PID.TID 0000.0001) // =======================================================
(PID.TID 0000.0001) // Parameter file "data.pkg"
(PID.TID 0000.0001) // =======================================================
(PID.TID 0000.0001) ># Packages
(PID.TID 0000.0001) > &PACKAGES
(PID.TID 0000.0001) >   useKPP     = .FALSE.,
(PID.TID 0000.0001) >   useMNC     = .TRUE.,
(PID.TID 0000.0001) >   useDIAGNOSTICS= .TRUE.,
(PID.TID 0000.0001) > /
(PID.TID 0000.0001) >
(PID.TID 0000.0001) 
(PID.TID 0000.0001)  PACKAGES_BOOT: finished reading data.pkg
(PID.TID 0000.0001)  MNC_READPARMS: opening file 'data.mnc'
(PID.TID 0000.0001) // =======================================================
(PID.TID 0000.0001) // Parameter file "data.mnc"
(PID.TID 0000.0001) // =======================================================
(PID.TID 0000.0001) ># Example "data.mnc" file
(PID.TID 0000.0001) ># Lines beginning "#" are comments
(PID.TID 0000.0001) > &MNC_01
(PID.TID 0000.0001) ># mnc_echo_gvtypes=.FALSE.,
(PID.TID 0000.0001) ># mnc_use_indir=.FALSE.,
(PID.TID 0000.0001) > mnc_use_outdir=.TRUE.,
(PID.TID 0000.0001) > mnc_outdir_str='input.0_',
(PID.TID 0000.0001) ># mnc_outdir_date=.TRUE.,
(PID.TID 0000.0001) > monitor_mnc=.FALSE.,
(PID.TID 0000.0001) > snapshot_mnc=.TRUE.,
(PID.TID 0000.0001) > timeave_mnc=.TRUE.,
(PID.TID 0000.0001) > pickup_write_mnc=.TRUE.,
(PID.TID 0000.0001) > pickup_read_mnc=.TRUE.,
(PID.TID 0000.0001) > /
(PID.TID 0000.0001) ># Note: Some systems use & as the
(PID.TID 0000.0001) ># namelist terminator. Other systems
(PID.TID 0000.0001) ># use a & character (as shown here).
(PID.TID 0000.0001) 
(PID.TID 0000.0001)  MNC_READPARMS: finished reading data.mnc
(PID.TID 0000.0001)  DIAGNOSTICS_READPARMS: opening data.diagnostics
(PID.TID 0000.0001)  OPEN_COPY_DATA_FILE: opening file data.diagnostics
(PID.TID 0000.0001) // =======================================================
(PID.TID 0000.0001) // Parameter file "data.diagnostics"
(PID.TID 0000.0001) // =======================================================
(PID.TID 0000.0001) ># Diagnostic Package Choices
(PID.TID 0000.0001) >#-----------------
(PID.TID 0000.0001) ># for each output-stream:
(PID.TID 0000.0001) >#  filename(n) : prefix of the output file name (only 8.c long) for outp.stream n
(PID.TID 0000.0001) >#  frequency(n):< 0 : write snap-shot output every multiple of |frequency| (iter)
(PID.TID 0000.0001) >#               > 0 : write time-average output every multiple of frequency (iter)
(PID.TID 0000.0001) >#  levels(:,n) : list of levels to write to file (Notes: declared as REAL)
(PID.TID 0000.0001) >#                 when this entry is missing, select all common levels of this list
(PID.TID 0000.0001) >#  fields(:,n) : list of diagnostics fields (8.c) (see "available_diagnostics" file
(PID.TID 0000.0001) >#                 for the list of all available diag. in this particular config)
(PID.TID 0000.0001) >#-----------------
(PID.TID 0000.0001) > &diagnostics_list
(PID.TID 0000.0001) >  diag_mnc=.TRUE.,
(PID.TID 0000.0001) >  frequency(1) = 72,
(PID.TID 0000.0001) >  fields(1,1) = 'UVELSLT ','VVELSLT ','WVELSLT ',
(PID.TID 0000.0001) >  filename(1) = 'spiceflx',
(PID.TID 0000.0001) >  frequency(2) = 72,
(PID.TID 0000.0001) >  fields(1,2) = 'UVELTH  ','VVELTH ','WVELTH ',
(PID.TID 0000.0001) >  filename(2) = 'thetaflx',
(PID.TID 0000.0001) > /
(PID.TID 0000.0001) >
(PID.TID 0000.0001) 
(PID.TID 0000.0001) -----------------------------------------------------
(PID.TID 0000.0001)  DIAGNOSTICS_READPARMS: active diagnostics summary:
(PID.TID 0000.0001) -----------------------------------------------------
(PID.TID 0000.0001) Creating Output Stream: spiceflx
(PID.TID 0000.0001)  Frequency:  72
(PID.TID 0000.0001)  Levels:    will be set later
(PID.TID 0000.0001)  Fields:    UVELSLT  VVELSLT  WVELSLT
(PID.TID 0000.0001) Creating Output Stream: thetaflx
(PID.TID 0000.0001)  Frequency:  72
(PID.TID 0000.0001)  Levels:    will be set later
(PID.TID 0000.0001)  Fields:    UVELTH   VVELTH   WVELTH
(PID.TID 0000.0001) -----------------------------------------------------
(PID.TID 0000.0001) 
(PID.TID 0000.0001) %MON XC_max                       =   4.9500000000000E+04
(PID.TID 0000.0001) %MON XC_min                       =   5.0000000000000E+02
(PID.TID 0000.0001) %MON XC_mean                      =   2.5000000000000E+04
(PID.TID 0000.0001) %MON XC_sd                        =   1.4430869689662E+04
(PID.TID 0000.0001) %MON XG_max                       =   4.9000000000000E+04
(PID.TID 0000.0001) %MON XG_min                       =   1.0000000000000E+03
(PID.TID 0000.0001) %MON XG_mean                      =   2.5000000000000E+04
(PID.TID 0000.0001) %MON XG_sd                        =   1.4142135623731E+04
(PID.TID 0000.0001) %MON DXC_max                      =   1.0000000000000E+03
(PID.TID 0000.0001) %MON DXC_min                      =   1.0000000000000E+03
(PID.TID 0000.0001) %MON DXC_mean                     =   1.0000000000000E+03
(PID.TID 0000.0001) %MON DXC_sd                       =   0.0000000000000E+00
(PID.TID 0000.0001) %MON DXF_max                      =   1.0000000000000E+03
(PID.TID 0000.0001) %MON DXF_min                      =   1.0000000000000E+03
(PID.TID 0000.0001) %MON DXF_mean                     =   1.0000000000000E+03
(PID.TID 0000.0001) %MON DXF_sd                       =   0.0000000000000E+00
(PID.TID 0000.0001) %MON DXG_max                      =   1.0000000000000E+03
(PID.TID 0000.0001) %MON DXG_min                      =   1.0000000000000E+03
(PID.TID 0000.0001) %MON DXG_mean                     =   1.0000000000000E+03
(PID.TID 0000.0001) %MON DXG_sd                       =   0.0000000000000E+00
(PID.TID 0000.0001) %MON DXV_max                      =   1.0000000000000E+03
(PID.TID 0000.0001) %MON DXV_min                      =   1.0000000000000E+03
(PID.TID 0000.0001) %MON DXV_mean                     =   1.0000000000000E+03
(PID.TID 0000.0001) %MON DXV_sd                       =   0.0000000000000E+00
(PID.TID 0000.0001) %MON YC_max                       =   2.5500000000000E+04
(PID.TID 0000.0001) %MON YC_min                       =   5.0000000000000E+02
(PID.TID 0000.0001) %MON YC_mean                      =   1.3000000000000E+04
(PID.TID 0000.0001) %MON YC_sd                        =   7.5000000000000E+03
(PID.TID 0000.0001) %MON YG_max                       =   2.5000000000000E+04
(PID.TID 0000.0001) %MON YG_min                       =   1.0000000000000E+03
(PID.TID 0000.0001) %MON YG_mean                      =   1.3000000000000E+04
(PID.TID 0000.0001) %MON YG_sd                        =   7.2111025509280E+03
(PID.TID 0000.0001) %MON DYC_max                      =   1.0000000000000E+03
(PID.TID 0000.0001) %MON DYC_min                      =   1.0000000000000E+03
(PID.TID 0000.0001) %MON DYC_mean                     =   1.0000000000000E+03
(PID.TID 0000.0001) %MON DYC_sd                       =   0.0000000000000E+00
(PID.TID 0000.0001) %MON DYF_max                      =   1.0000000000000E+03
(PID.TID 0000.0001) %MON DYF_min                      =   1.0000000000000E+03
(PID.TID 0000.0001) %MON DYF_mean                     =   1.0000000000000E+03
(PID.TID 0000.0001) %MON DYF_sd                       =   0.0000000000000E+00
(PID.TID 0000.0001) %MON DYG_max                      =   1.0000000000000E+03
(PID.TID 0000.0001) %MON DYG_min                      =   1.0000000000000E+03
(PID.TID 0000.0001) %MON DYG_mean                     =   1.0000000000000E+03
(PID.TID 0000.0001) %MON DYG_sd                       =   0.0000000000000E+00
(PID.TID 0000.0001) %MON DYU_max                      =   1.0000000000000E+03
(PID.TID 0000.0001) %MON DYU_min                      =   1.0000000000000E+03
(PID.TID 0000.0001) %MON DYU_mean                     =   1.0000000000000E+03
(PID.TID 0000.0001) %MON DYU_sd                       =   0.0000000000000E+00
(PID.TID 0000.0001) %MON RA_max                       =   1.0000000000000E+06
(PID.TID 0000.0001) %MON RA_min                       =   1.0000000000000E+06
(PID.TID 0000.0001) %MON RA_mean                      =   1.0000000000000E+06
(PID.TID 0000.0001) %MON RA_sd                        =   0.0000000000000E+00
(PID.TID 0000.0001) %MON RAW_max                      =   1.0000000000000E+06
(PID.TID 0000.0001) %MON RAW_min                      =   1.0000000000000E+06
(PID.TID 0000.0001) %MON RAW_mean                     =   1.0000000000000E+06
(PID.TID 0000.0001) %MON RAW_sd                       =   0.0000000000000E+00
(PID.TID 0000.0001) %MON RAS_max                      =   1.0000000000000E+06
(PID.TID 0000.0001) %MON RAS_min                      =   1.0000000000000E+06
(PID.TID 0000.0001) %MON RAS_mean                     =   1.0000000000000E+06
(PID.TID 0000.0001) %MON RAS_sd                       =   0.0000000000000E+00
(PID.TID 0000.0001) %MON RAZ_max                      =   1.0000000000000E+06
(PID.TID 0000.0001) %MON RAZ_min                      =   1.0000000000000E+06
(PID.TID 0000.0001) %MON RAZ_mean                     =   1.0000000000000E+06
(PID.TID 0000.0001) %MON RAZ_sd                       =   0.0000000000000E+00
(PID.TID 0000.0001)  MDSREADFIELD: opening global file: topo_sl.bin
(PID.TID 0000.0001) // =======================================================
(PID.TID 0000.0001) // Field Model R_low (ini_masks_etc) at iteration          1
(PID.TID 0000.0001) // CMIN =         -2.000000000000000E+02
(PID.TID 0000.0001) // CMAX =         -2.000000000000000E+02
(PID.TID 0000.0001) // CINT =          0.000000000000000E+00
(PID.TID 0000.0001) // SYMBOLS (CMIN->CMAX): -abcdefghijklmnopqrstuvwxyz+
(PID.TID 0000.0001) //                  0.0: .
(PID.TID 0000.0001) // RANGE I (Lo:Hi:Step):(  -2:  53:   1)
(PID.TID 0000.0001) // RANGE J (Lo:Hi:Step):(  29:  -2:  -1)
(PID.TID 0000.0001) // RANGE K (Lo:Hi:Step):(   1:   1:   1)
(PID.TID 0000.0001) // =======================================================
(PID.TID 0000.0001) // =======================================================
(PID.TID 0000.0001) // END OF FIELD                                          =
(PID.TID 0000.0001) // =======================================================
(PID.TID 0000.0001) 
(PID.TID 0000.0001) // =======================================================
(PID.TID 0000.0001) // Field Model Ro_surf (ini_masks_etc) at iteration          1
(PID.TID 0000.0001) // CMIN =          1.000000000000000E+32
(PID.TID 0000.0001) // CMAX =         -1.000000000000000E+32
(PID.TID 0000.0001) // CINT =          0.000000000000000E+00
(PID.TID 0000.0001) // SYMBOLS (CMIN->CMAX): -abcdefghijklmnopqrstuvwxyz+
(PID.TID 0000.0001) //                  0.0: .
(PID.TID 0000.0001) // RANGE I (Lo:Hi:Step):(  -2:  53:   1)
(PID.TID 0000.0001) // RANGE J (Lo:Hi:Step):(  29:  -2:  -1)
(PID.TID 0000.0001) // RANGE K (Lo:Hi:Step):(   1:   1:   1)
(PID.TID 0000.0001) // =======================================================
(PID.TID 0000.0001) // =======================================================
(PID.TID 0000.0001) // END OF FIELD                                          =
(PID.TID 0000.0001) // =======================================================
(PID.TID 0000.0001) 
(PID.TID 0000.0001) // =======================================================
(PID.TID 0000.0001) // Field hFacC at iteration          1
(PID.TID 0000.0001) // CMIN =          1.000000000000000E+00
(PID.TID 0000.0001) // CMAX =          1.000000000000000E+00
(PID.TID 0000.0001) // CINT =          0.000000000000000E+00
(PID.TID 0000.0001) // SYMBOLS (CMIN->CMAX): -abcdefghijklmnopqrstuvwxyz+
(PID.TID 0000.0001) //                  0.0: .
(PID.TID 0000.0001) // RANGE I (Lo:Hi:Step):(  -2:  53:   1)
(PID.TID 0000.0001) // RANGE J (Lo:Hi:Step):(  29:  -2:  -1)
(PID.TID 0000.0001) // RANGE K (Lo:Hi:Step):(   1:   1:   1)
(PID.TID 0000.0001) // =======================================================
(PID.TID 0000.0001) // =======================================================
(PID.TID 0000.0001) // END OF FIELD                                          =
(PID.TID 0000.0001) // =======================================================
(PID.TID 0000.0001) 
(PID.TID 0000.0001) // =======================================================
(PID.TID 0000.0001) // Field hFacW at iteration          1
(PID.TID 0000.0001) // CMIN =          1.000000000000000E+00
(PID.TID 0000.0001) // CMAX =          1.000000000000000E+00
(PID.TID 0000.0001) // CINT =          0.000000000000000E+00
(PID.TID 0000.0001) // SYMBOLS (CMIN->CMAX): -abcdefghijklmnopqrstuvwxyz+
(PID.TID 0000.0001) //                  0.0: .
(PID.TID 0000.0001) // RANGE I (Lo:Hi:Step):(  -2:  53:   1)
(PID.TID 0000.0001) // RANGE J (Lo:Hi:Step):(  29:  -2:  -1)
(PID.TID 0000.0001) // RANGE K (Lo:Hi:Step):(   1:   1:   1)
(PID.TID 0000.0001) // =======================================================
(PID.TID 0000.0001) // =======================================================
(PID.TID 0000.0001) // END OF FIELD                                          =
(PID.TID 0000.0001) // =======================================================
(PID.TID 0000.0001) 
(PID.TID 0000.0001) // =======================================================
(PID.TID 0000.0001) // Field hFacS at iteration          1
(PID.TID 0000.0001) // CMIN =          1.000000000000000E+00
(PID.TID 0000.0001) // CMAX =          1.000000000000000E+00
(PID.TID 0000.0001) // CINT =          0.000000000000000E+00
(PID.TID 0000.0001) // SYMBOLS (CMIN->CMAX): -abcdefghijklmnopqrstuvwxyz+
(PID.TID 0000.0001) //                  0.0: .
(PID.TID 0000.0001) // RANGE I (Lo:Hi:Step):(  -2:  53:   1)
(PID.TID 0000.0001) // RANGE J (Lo:Hi:Step):(  29:  -2:  -1)
(PID.TID 0000.0001) // RANGE K (Lo:Hi:Step):(   1:   1:   1)
(PID.TID 0000.0001) // =======================================================
(PID.TID 0000.0001) // =======================================================
(PID.TID 0000.0001) // END OF FIELD                                          =
(PID.TID 0000.0001) // =======================================================
(PID.TID 0000.0001) 
(PID.TID 0000.0001) 
(PID.TID 0000.0001) // ===================================
(PID.TID 0000.0001) // GAD parameters :
(PID.TID 0000.0001) // ===================================
(PID.TID 0000.0001) tempAdvScheme =   /* Temp. Horiz.Advection scheme selector */
(PID.TID 0000.0001)                      33
(PID.TID 0000.0001)     ;
(PID.TID 0000.0001) tempVertAdvScheme =   /* Temp. Vert. Advection scheme selector */
(PID.TID 0000.0001)                      33
(PID.TID 0000.0001)     ;
(PID.TID 0000.0001) tempMultiDimAdvec =   /* use Muti-Dim Advec method for Temp */
(PID.TID 0000.0001)                   T
(PID.TID 0000.0001)     ;
(PID.TID 0000.0001) tempAdamsBashforth =   /* use Adams-Bashforth time-stepping for Temp */
(PID.TID 0000.0001)                   F
(PID.TID 0000.0001)     ;
(PID.TID 0000.0001) saltAdvScheme =   /* Salt. Horiz.advection scheme selector */
(PID.TID 0000.0001)                      33
(PID.TID 0000.0001)     ;
(PID.TID 0000.0001) saltVertAdvScheme =   /* Salt. Vert. Advection scheme selector */
(PID.TID 0000.0001)                      33
(PID.TID 0000.0001)     ;
(PID.TID 0000.0001) saltMultiDimAdvec =   /* use Muti-Dim Advec method for Salt */
(PID.TID 0000.0001)                   T
(PID.TID 0000.0001)     ;
(PID.TID 0000.0001) saltAdamsBashforth =   /* use Adams-Bashforth time-stepping for Salt */
(PID.TID 0000.0001)                   F
(PID.TID 0000.0001)     ;
(PID.TID 0000.0001) // ===================================
(PID.TID 0000.0001) ------------------------------------------------------------
(PID.TID 0000.0001) DIAGNOSTICS_SET_LEVELS: done
(PID.TID 0000.0001)  Total Nb of available Diagnostics: ndiagt= 301
(PID.TID 0000.0001)  write list of available Diagnostics to file: available_diagnostics.log
(PID.TID 0000.0001) SETDIAG: Allocate 40 Levels for Diagnostic # 267 UVELSLT
(PID.TID 0000.0001) SETDIAG: Allocate 40 Levels for Diagnostic # 268 VVELSLT
(PID.TID 0000.0001) SETDIAG: Allocate 40 Levels for Diagnostic # 269 WVELSLT
(PID.TID 0000.0001) SETDIAG: Allocate 40 Levels for Diagnostic # 264 UVELTH
(PID.TID 0000.0001) SETDIAG: Allocate 40 Levels for Diagnostic # 265 VVELTH
(PID.TID 0000.0001) SETDIAG: Allocate 40 Levels for Diagnostic # 266 WVELTH
(PID.TID 0000.0001)   space allocated for all diagnostics:   240 levels
(PID.TID 0000.0001) DIAGNOSTICS_SET_POINTERS: Set levels for Outp.Stream: spiceflx
(PID.TID 0000.0001)  Levels:       1.   2.   3.   4.   5.   6.   7.   8.   9.  10.  11.  12.  13.  14.  15.  16.  17.  18.  19.  20.
(PID.TID 0000.0001)  Levels:      21.  22.  23.  24.  25.  26.  27.  28.  29.  30.  31.  32.  33.  34.  35.  36.  37.  38.  39.  40.
(PID.TID 0000.0001) DIAGNOSTICS_SET_POINTERS: Set levels for Outp.Stream: thetaflx
(PID.TID 0000.0001)  Levels:       1.   2.   3.   4.   5.   6.   7.   8.   9.  10.  11.  12.  13.  14.  15.  16.  17.  18.  19.  20.
(PID.TID 0000.0001)  Levels:      21.  22.  23.  24.  25.  26.  27.  28.  29.  30.  31.  32.  33.  34.  35.  36.  37.  38.  39.  40.
(PID.TID 0000.0001) DIAGNOSTICS_SET_POINTERS: done
(PID.TID 0000.0001) ------------------------------------------------------------
(PID.TID 0000.0001) %MON fCori_max                    =   7.2900000000000E-05
(PID.TID 0000.0001) %MON fCori_min                    =   7.2900000000000E-05
(PID.TID 0000.0001) %MON fCori_mean                   =   7.2900000000001E-05
(PID.TID 0000.0001) %MON fCori_sd                     =   6.6407383064737E-19
(PID.TID 0000.0001) %MON fCoriG_max                   =   7.2900000000000E-05
(PID.TID 0000.0001) %MON fCoriG_min                   =   7.2900000000000E-05
(PID.TID 0000.0001) %MON fCoriG_mean                  =   7.2900000000001E-05
(PID.TID 0000.0001) %MON fCoriG_sd                    =   6.6407383064737E-19
(PID.TID 0000.0001) %MON fCoriCos_max                 =   0.0000000000000E+00
(PID.TID 0000.0001) %MON fCoriCos_min                 =   0.0000000000000E+00
(PID.TID 0000.0001) %MON fCoriCos_mean                =   0.0000000000000E+00
(PID.TID 0000.0001) %MON fCoriCos_sd                  =   0.0000000000000E+00
(PID.TID 0000.0001) // CG2D normalisation factor =           .5000000000000000104083409E-02
(PID.TID 0000.0001) 
(PID.TID 0000.0001) CONFIG_CHECK: OK
(PID.TID 0000.0001) // =======================================================
(PID.TID 0000.0001) // Model configuration
(PID.TID 0000.0001) // =======================================================
(PID.TID 0000.0001) //
(PID.TID 0000.0001) // "Physical" paramters ( PARM01 in namelist )
(PID.TID 0000.0001) //
(PID.TID 0000.0001) buoyancyRelation = OCEANIC
(PID.TID 0000.0001) fluidIsAir  =  /* fluid major constituent is Air */
(PID.TID 0000.0001)                   F
(PID.TID 0000.0001)     ;
(PID.TID 0000.0001) fluidIsWater=  /* fuild major constituent is Water */
(PID.TID 0000.0001)                   T
(PID.TID 0000.0001)     ;
(PID.TID 0000.0001) usingPCoords =  /* use p (or p*) vertical coordinate */
(PID.TID 0000.0001)                   F
(PID.TID 0000.0001)     ;
(PID.TID 0000.0001) usingZCoords =  /* use z (or z*) vertical coordinate */
(PID.TID 0000.0001)                   T
(PID.TID 0000.0001)     ;
(PID.TID 0000.0001) tRef =   /* Reference temperature profile ( oC or oK ) */
(PID.TID 0000.0001)                 2.900000000000000E+01,      /* K =  1 */
(PID.TID 0000.0001)                 2.800000000000000E+01,      /* K =  2 */
(PID.TID 0000.0001)                 2.700000000000000E+01,      /* K =  3 */
(PID.TID 0000.0001)                 2.600000000000000E+01,      /* K =  4 */
(PID.TID 0000.0001)                 2.500000000000000E+01,      /* K =  5 */
(PID.TID 0000.0001)                 2.400000000000000E+01,      /* K =  6 */
(PID.TID 0000.0001)                 2.300000000000000E+01,      /* K =  7 */
(PID.TID 0000.0001)                 2.200000000000000E+01,      /* K =  8 */
(PID.TID 0000.0001)                 2.100000000000000E+01,      /* K =  9 */
(PID.TID 0000.0001)                 2.000000000000000E+01,      /* K = 10 */
(PID.TID 0000.0001)                 1.900000000000000E+01,      /* K = 11 */
(PID.TID 0000.0001)                 1.800000000000000E+01,      /* K = 12 */
(PID.TID 0000.0001)                 1.700000000000000E+01,      /* K = 13 */
(PID.TID 0000.0001)                 1.600000000000000E+01,      /* K = 14 */
(PID.TID 0000.0001)                 1.500000000000000E+01,      /* K = 15 */
(PID.TID 0000.0001)                 1.400000000000000E+01,      /* K = 16 */
(PID.TID 0000.0001)                 1.300000000000000E+01,      /* K = 17 */
(PID.TID 0000.0001)                 1.200000000000000E+01,      /* K = 18 */
(PID.TID 0000.0001)                 1.100000000000000E+01,      /* K = 19 */
(PID.TID 0000.0001)                 1.000000000000000E+01,      /* K = 20 */
(PID.TID 0000.0001)                 9.000000000000000E+00,      /* K = 21 */
(PID.TID 0000.0001)                 8.000000000000000E+00,      /* K = 22 */
(PID.TID 0000.0001)                 7.000000000000000E+00,      /* K = 23 */
(PID.TID 0000.0001)                 6.000000000000000E+00,      /* K = 24 */
(PID.TID 0000.0001)                 5.000000000000000E+00,      /* K = 25 */
(PID.TID 0000.0001)                 4.000000000000000E+00,      /* K = 26 */
(PID.TID 0000.0001)                 3.000000000000000E+00,      /* K = 27 */
(PID.TID 0000.0001)                 2.000000000000000E+00,      /* K = 28 */
(PID.TID 0000.0001)                 1.000000000000000E+00,      /* K = 29 */
(PID.TID 0000.0001)                 0.000000000000000E+00,      /* K = 30 */
(PID.TID 0000.0001)                -1.000000000000000E+00,      /* K = 31 */
(PID.TID 0000.0001)                -2.000000000000000E+00,      /* K = 32 */
(PID.TID 0000.0001)                -3.000000000000000E+00,      /* K = 33 */
(PID.TID 0000.0001)                -4.000000000000000E+00,      /* K = 34 */
(PID.TID 0000.0001)                -5.000000000000000E+00,      /* K = 35 */
(PID.TID 0000.0001)                -6.000000000000000E+00,      /* K = 36 */
(PID.TID 0000.0001)                -7.000000000000000E+00,      /* K = 37 */
(PID.TID 0000.0001)                -8.000000000000000E+00,      /* K = 38 */
(PID.TID 0000.0001)                -9.000000000000000E+00,      /* K = 39 */
(PID.TID 0000.0001)                -1.000000000000000E+01       /* K = 40 */
(PID.TID 0000.0001)     ;
(PID.TID 0000.0001) sRef =   /* Reference salinity profile ( ppt ) */
(PID.TID 0000.0001)    40 @  0.000000000000000E+00              /* K =  1: 40 */
(PID.TID 0000.0001)     ;
(PID.TID 0000.0001) viscAh =   /* Lateral eddy viscosity ( m^2/s ) */
(PID.TID 0000.0001)                 0.000000000000000E+00
(PID.TID 0000.0001)     ;
(PID.TID 0000.0001) viscAhMax =   /* Maximum lateral eddy viscosity ( m^2/s ) */
(PID.TID 0000.0001)                 1.000000000000000E+21
(PID.TID 0000.0001)     ;
(PID.TID 0000.0001) viscAhGrid =   /* Grid dependent lateral eddy viscosity ( non-dim. ) */
(PID.TID 0000.0001)                 0.000000000000000E+00
(PID.TID 0000.0001)     ;
(PID.TID 0000.0001) useFullLeith =   /* Use Full Form of Leith Viscosity on/off flag*/
(PID.TID 0000.0001)                   T
(PID.TID 0000.0001)     ;
(PID.TID 0000.0001) viscC2leith =   /* Leith harmonic viscosity factor ( on grad(vort), non-dim. ) */
(PID.TID 0000.0001)                 0.000000000000000E+00
(PID.TID 0000.0001)     ;
(PID.TID 0000.0001) viscC2leithD =   /* Leith harmonic viscosity factor ( on grad(div), non-dim. ) */
(PID.TID 0000.0001)                 0.000000000000000E+00
(PID.TID 0000.0001)     ;
(PID.TID 0000.0001) viscC2smag =   /* Smagorinsky harmonic viscosity factor (non-dim.) */
(PID.TID 0000.0001)                 4.000000000000000E+00
(PID.TID 0000.0001)     ;
(PID.TID 0000.0001) viscA4 =   /* Lateral biharmonic viscosity ( m^4/s ) */
(PID.TID 0000.0001)                 0.000000000000000E+00
(PID.TID 0000.0001)     ;
(PID.TID 0000.0001) viscA4Max =   /* Maximum biharmonic viscosity ( m^2/s ) */
(PID.TID 0000.0001)                 1.000000000000000E+21
(PID.TID 0000.0001)     ;
(PID.TID 0000.0001) viscA4Grid =   /* Grid dependent biharmonic viscosity ( non-dim. ) */
(PID.TID 0000.0001)                 0.000000000000000E+00
(PID.TID 0000.0001)     ;
(PID.TID 0000.0001) viscC4leith =   /* Leith biharmonic viscosity factor ( on grad(vort), non-dom. ) */
(PID.TID 0000.0001)                 0.000000000000000E+00
(PID.TID 0000.0001)     ;
(PID.TID 0000.0001) viscC4leithD =   /* Leith biharmonic viscosity factor ( on grad(div), non-dom. ) */
(PID.TID 0000.0001)                 0.000000000000000E+00
(PID.TID 0000.0001)     ;
(PID.TID 0000.0001) no_slip_sides =  /* Viscous BCs: No-slip sides */
(PID.TID 0000.0001)                   F
(PID.TID 0000.0001)     ;
(PID.TID 0000.0001) viscAr =   /* Vertical eddy viscosity ( units of r^2/s ) */
(PID.TID 0000.0001)                 5.000000000000000E-03
(PID.TID 0000.0001)     ;
(PID.TID 0000.0001) no_slip_bottom =  /* Viscous BCs: No-slip bottom */
(PID.TID 0000.0001)                   F
(PID.TID 0000.0001)     ;
(PID.TID 0000.0001) diffKhT =   /* Laplacian diffusion of heat laterally ( m^2/s ) */
(PID.TID 0000.0001)                 0.000000000000000E+00
(PID.TID 0000.0001)     ;
(PID.TID 0000.0001) diffK4T =   /* Bihaarmonic diffusion of heat laterally ( m^4/s ) */
(PID.TID 0000.0001)                 0.000000000000000E+00
(PID.TID 0000.0001)     ;
(PID.TID 0000.0001) diffKhS =   /* Laplacian diffusion of salt laterally ( m^2/s ) */
(PID.TID 0000.0001)                 0.000000000000000E+00
(PID.TID 0000.0001)     ;
(PID.TID 0000.0001) diffK4S =   /* Bihaarmonic diffusion of salt laterally ( m^4/s ) */
(PID.TID 0000.0001)                 0.000000000000000E+00
(PID.TID 0000.0001)     ;
(PID.TID 0000.0001) diffKrNrT = /* vertical profile of vertical diffusion of Temp ( m^2/s )*/
(PID.TID 0000.0001)    40 @  0.000000000000000E+00              /* K =  1: 40 */
(PID.TID 0000.0001)     ;
(PID.TID 0000.0001) diffKrNrS = /* vertical profile of vertical diffusion of Salt ( m^2/s )*/
(PID.TID 0000.0001)    40 @  0.000000000000000E+00              /* K =  1: 40 */
(PID.TID 0000.0001)     ;
(PID.TID 0000.0001) diffKrBL79surf =   /* Surface diffusion for Bryan and Lewis 1979 ( m^2/s ) */
(PID.TID 0000.0001)                 0.000000000000000E+00
(PID.TID 0000.0001)     ;
(PID.TID 0000.0001) diffKrBL79deep =   /* Deep diffusion for Bryan and Lewis 1979 ( m^2/s ) */
(PID.TID 0000.0001)                 0.000000000000000E+00
(PID.TID 0000.0001)     ;
(PID.TID 0000.0001) diffKrBL79scl =   /* Depth scale for Bryan and Lewis 1979 ( m ) */
(PID.TID 0000.0001)                 2.000000000000000E+02
(PID.TID 0000.0001)     ;
(PID.TID 0000.0001) diffKrBL79Ho =   /* Turning depth for Bryan and Lewis 1979 ( m ) */
(PID.TID 0000.0001)                -2.000000000000000E+03
(PID.TID 0000.0001)     ;
(PID.TID 0000.0001)  Equation of State : eosType = LINEAR
(PID.TID 0000.0001) tAlpha =   /* Linear EOS thermal expansion coefficient ( 1/degree ) */
(PID.TID 0000.0001)                 2.000000000000000E-04
(PID.TID 0000.0001)     ;
(PID.TID 0000.0001) sBeta =   /* Linear EOS haline contraction coefficient ( 1/ppt ) */
(PID.TID 0000.0001)                 0.000000000000000E+00
(PID.TID 0000.0001)     ;
(PID.TID 0000.0001) rhonil =   /* Reference density ( kg/m^3 ) */
(PID.TID 0000.0001)                 1.035000000000000E+03
(PID.TID 0000.0001)     ;
(PID.TID 0000.0001) rhoConst =   /* Reference density ( kg/m^3 ) */
(PID.TID 0000.0001)                 1.035000000000000E+03
(PID.TID 0000.0001)     ;
(PID.TID 0000.0001) rhoConstFresh =   /* Reference density ( kg/m^3 ) */
(PID.TID 0000.0001)                 1.035000000000000E+03
(PID.TID 0000.0001)     ;
(PID.TID 0000.0001) gravity =   /* Gravitational acceleration ( m/s^2 ) */
(PID.TID 0000.0001)                 9.810000000000000E+00
(PID.TID 0000.0001)     ;
(PID.TID 0000.0001) gBaro =   /* Barotropic gravity ( m/s^2 ) */
(PID.TID 0000.0001)                 9.810000000000000E+00
(PID.TID 0000.0001)     ;
(PID.TID 0000.0001) rotationPeriod =   /* Rotation Period ( s ) */
(PID.TID 0000.0001)                 8.640000000000000E+04
(PID.TID 0000.0001)     ;
(PID.TID 0000.0001) omega =   /* Angular velocity ( rad/s ) */
(PID.TID 0000.0001)                 7.272205216643040E-05
(PID.TID 0000.0001)     ;
(PID.TID 0000.0001) f0 =   /* Reference coriolis parameter ( 1/s ) */
(PID.TID 0000.0001)                 7.290000000000000E-05
(PID.TID 0000.0001)     ;
(PID.TID 0000.0001) beta =   /* Beta ( 1/(m.s) ) */
(PID.TID 0000.0001)                 0.000000000000000E+00
(PID.TID 0000.0001)     ;
(PID.TID 0000.0001) freeSurfFac =   /* Implicit free surface factor */
(PID.TID 0000.0001)                 1.000000000000000E+00
(PID.TID 0000.0001)     ;
(PID.TID 0000.0001) implicitFreeSurface =   /* Implicit free surface on/off flag */
(PID.TID 0000.0001)                   T
(PID.TID 0000.0001)     ;
(PID.TID 0000.0001) rigidLid =   /* Rigid lid on/off flag */
(PID.TID 0000.0001)                   F
(PID.TID 0000.0001)     ;
(PID.TID 0000.0001) implicSurfPress =   /* Surface Pressure implicit factor (0-1)*/
(PID.TID 0000.0001)                 1.000000000000000E+00
(PID.TID 0000.0001)     ;
(PID.TID 0000.0001) implicDiv2Dflow =   /* Barot. Flow Div. implicit factor (0-1)*/
(PID.TID 0000.0001)                 1.000000000000000E+00
(PID.TID 0000.0001)     ;
(PID.TID 0000.0001) exactConserv =   /* Exact Volume Conservation on/off flag*/
(PID.TID 0000.0001)                   F
(PID.TID 0000.0001)     ;
(PID.TID 0000.0001) uniformLin_PhiSurf =   /* use uniform Bo_surf on/off flag*/
(PID.TID 0000.0001)                   T
(PID.TID 0000.0001)     ;
(PID.TID 0000.0001) nonlinFreeSurf =   /* Non-linear Free Surf. options (-1,0,1,2,3)*/
(PID.TID 0000.0001)                       0
(PID.TID 0000.0001)     ;
(PID.TID 0000.0001)      -1,0= Off ; 1,2,3= On, 2=+rescale gU,gV, 3=+update cg2d solv.
(PID.TID 0000.0001) hFacInf =   /* lower threshold for hFac (nonlinFreeSurf only)*/
(PID.TID 0000.0001)                 2.000000000000000E-01
(PID.TID 0000.0001)     ;
(PID.TID 0000.0001) hFacSup =   /* upper threshold for hFac (nonlinFreeSurf only)*/
(PID.TID 0000.0001)                 2.000000000000000E+00
(PID.TID 0000.0001)     ;
(PID.TID 0000.0001) select_rStar =   /* r* Coordinate options (not yet implemented)*/
(PID.TID 0000.0001)                       0
(PID.TID 0000.0001)     ;
(PID.TID 0000.0001) useRealFreshWaterFlux =   /* Real Fresh Water Flux on/off flag*/
(PID.TID 0000.0001)                   F
(PID.TID 0000.0001)     ;
(PID.TID 0000.0001) convertFW2Salt = /* convert F.W. Flux to Salt Flux (-1=use local S)(ppt)*/
(PID.TID 0000.0001)                 3.500000000000000E+01
(PID.TID 0000.0001)     ;
(PID.TID 0000.0001) nonHydrostatic =  /* Non-Hydrostatic on/off flag */
(PID.TID 0000.0001)                   F
(PID.TID 0000.0001)     ;
(PID.TID 0000.0001) momStepping =  /* Momentum equation on/off flag */
(PID.TID 0000.0001)                   T
(PID.TID 0000.0001)     ;
(PID.TID 0000.0001) momAdvection =  /* Momentum advection on/off flag */
(PID.TID 0000.0001)                   T
(PID.TID 0000.0001)     ;
(PID.TID 0000.0001) momViscosity =  /* Momentum viscosity on/off flag */
(PID.TID 0000.0001)                   T
(PID.TID 0000.0001)     ;
(PID.TID 0000.0001) momImplVertAdv =/* Momentum implicit vert. advection on/off*/
(PID.TID 0000.0001)                   F
(PID.TID 0000.0001)     ;
(PID.TID 0000.0001) implicitViscosity = /* Implicit viscosity on/off flag */
(PID.TID 0000.0001)                   T
(PID.TID 0000.0001)     ;
(PID.TID 0000.0001) useCoriolis =  /* Coriolis on/off flag */
(PID.TID 0000.0001)                   T
(PID.TID 0000.0001)     ;
(PID.TID 0000.0001) useCDscheme =  /* CD scheme on/off flag */
(PID.TID 0000.0001)                   F
(PID.TID 0000.0001)     ;
(PID.TID 0000.0001) useJamartWetPoints= /* Coriolis WetPoints method flag */
(PID.TID 0000.0001)                   T
(PID.TID 0000.0001)     ;
(PID.TID 0000.0001) useJamartMomAdv= /* V.I. Non-linear terms Jamart flag */
(PID.TID 0000.0001)                   F
(PID.TID 0000.0001)     ;
(PID.TID 0000.0001) SadournyCoriolis= /* Sadourny Coriolis discr. flag */
(PID.TID 0000.0001)                   F
(PID.TID 0000.0001)     ;
(PID.TID 0000.0001) upwindVorticity= /* Upwind bias vorticity flag */
(PID.TID 0000.0001)                   F
(PID.TID 0000.0001)     ;
(PID.TID 0000.0001) useAbsVorticity= /* Work with f+zeta in Coriolis */
(PID.TID 0000.0001)                   F
(PID.TID 0000.0001)     ;
(PID.TID 0000.0001) highOrderVorticity= /* High order interp. of vort. flag */
(PID.TID 0000.0001)                   F
(PID.TID 0000.0001)     ;
(PID.TID 0000.0001) momForcing =  /* Momentum forcing on/off flag */
(PID.TID 0000.0001)                   T
(PID.TID 0000.0001)     ;
(PID.TID 0000.0001) momPressureForcing =  /* Momentum pressure term on/off flag */
(PID.TID 0000.0001)                   T
(PID.TID 0000.0001)     ;
(PID.TID 0000.0001) staggerTimeStep =   /* Stagger time stepping on/off flag */
(PID.TID 0000.0001)                   T
(PID.TID 0000.0001)     ;
(PID.TID 0000.0001) multiDimAdvection =   /* enable/disable Multi-Dim Advection */
(PID.TID 0000.0001)                   T
(PID.TID 0000.0001)     ;
(PID.TID 0000.0001) useMultiDimAdvec =   /* Multi-Dim Advection is/is-not used */
(PID.TID 0000.0001)                   T
(PID.TID 0000.0001)     ;
(PID.TID 0000.0001) implicitDiffusion =/* Implicit Diffusion on/off flag */
(PID.TID 0000.0001)                   T
(PID.TID 0000.0001)     ;
(PID.TID 0000.0001) tempStepping =  /* Temperature equation on/off flag */
(PID.TID 0000.0001)                   T
(PID.TID 0000.0001)     ;
(PID.TID 0000.0001) tempAdvection=  /* Temperature advection on/off flag */
(PID.TID 0000.0001)                   T
(PID.TID 0000.0001)     ;
(PID.TID 0000.0001) tempImplVertAdv =/* Temp. implicit vert. advection on/off */
(PID.TID 0000.0001)                   F
(PID.TID 0000.0001)     ;
(PID.TID 0000.0001) tempForcing  =  /* Temperature forcing on/off flag */
(PID.TID 0000.0001)                   T
(PID.TID 0000.0001)     ;
(PID.TID 0000.0001) saltStepping =  /* Salinity equation on/off flag */
(PID.TID 0000.0001)                   T
(PID.TID 0000.0001)     ;
(PID.TID 0000.0001) saltAdvection=  /* Salinity advection on/off flag */
(PID.TID 0000.0001)                   T
(PID.TID 0000.0001)     ;
(PID.TID 0000.0001) saltImplVertAdv =/* Sali. implicit vert. advection on/off */
(PID.TID 0000.0001)                   F
(PID.TID 0000.0001)     ;
(PID.TID 0000.0001) saltForcing  =  /* Salinity forcing on/off flag */
(PID.TID 0000.0001)                   T
(PID.TID 0000.0001)     ;
(PID.TID 0000.0001) //
(PID.TID 0000.0001) // Elliptic solver(s) paramters ( PARM02 in namelist )
(PID.TID 0000.0001) //
(PID.TID 0000.0001) cg2dMaxIters =   /* Upper limit on 2d con. grad iterations  */
(PID.TID 0000.0001)                    1000
(PID.TID 0000.0001)     ;
(PID.TID 0000.0001) cg2dChkResFreq =   /* 2d con. grad convergence test frequency */
(PID.TID 0000.0001)                       1
(PID.TID 0000.0001)     ;
(PID.TID 0000.0001) cg2dTargetResidual =   /* 2d con. grad target residual  */
(PID.TID 0000.0001)                 9.999999999999999E-12
(PID.TID 0000.0001)     ;
(PID.TID 0000.0001) cg2dTargetResWunit =   /* CG2d target residual [W units] */
(PID.TID 0000.0001)                -1.000000000000000E+00
(PID.TID 0000.0001)     ;
(PID.TID 0000.0001) cg2dPreCondFreq =   /* Freq. for updating cg2d preconditioner */
(PID.TID 0000.0001)                       1
(PID.TID 0000.0001)     ;
(PID.TID 0000.0001) //
(PID.TID 0000.0001) // Time stepping paramters ( PARM03 in namelist )
(PID.TID 0000.0001) //
(PID.TID 0000.0001) nIter0 =   /* Base timestep number  */
(PID.TID 0000.0001)                       0
(PID.TID 0000.0001)     ;
(PID.TID 0000.0001) nTimeSteps =   /* Number of timesteps */
(PID.TID 0000.0001)                      72
(PID.TID 0000.0001)     ;
(PID.TID 0000.0001) deltatTmom =   /* Momentum equation timestep ( s ) */
(PID.TID 0000.0001)                 1.200000000000000E+03
(PID.TID 0000.0001)     ;
(PID.TID 0000.0001) deltaTfreesurf =   /* FreeSurface equation timestep ( s ) */
(PID.TID 0000.0001)                 1.200000000000000E+03
(PID.TID 0000.0001)     ;
(PID.TID 0000.0001) dTtracerLev =   /* Tracer equation timestep ( s ) */
(PID.TID 0000.0001)    40 @  1.200000000000000E+03              /* K =  1: 40 */
(PID.TID 0000.0001)     ;
(PID.TID 0000.0001) deltatTClock  =   /* Model clock timestep ( s ) */
(PID.TID 0000.0001)                 1.200000000000000E+03
(PID.TID 0000.0001)     ;
(PID.TID 0000.0001) cAdjFreq =   /* Convective adjustment interval ( s ) */
(PID.TID 0000.0001)                 0.000000000000000E+00
(PID.TID 0000.0001)     ;
(PID.TID 0000.0001) forcing_In_AB =   /* put T,S Forcing in Adams-Bash. stepping */
(PID.TID 0000.0001)                   T
(PID.TID 0000.0001)     ;
(PID.TID 0000.0001) abeps =   /* Adams-Bashforth stabilizing weight */
(PID.TID 0000.0001)                 1.000000000000000E-02
(PID.TID 0000.0001)     ;
(PID.TID 0000.0001) startTime =   /* Run start time ( s ). */
(PID.TID 0000.0001)                 0.000000000000000E+00
(PID.TID 0000.0001)     ;
(PID.TID 0000.0001) endTime =   /* Integration ending time ( s ). */
(PID.TID 0000.0001)                 8.640000000000000E+04
(PID.TID 0000.0001)     ;
(PID.TID 0000.0001) pChkPtFreq =   /* Permanent restart/checkpoint file interval ( s ). */
(PID.TID 0000.0001)                 4.320000000000000E+04
(PID.TID 0000.0001)     ;
(PID.TID 0000.0001) chkPtFreq =   /* Rolling restart/checkpoint file interval ( s ). */
(PID.TID 0000.0001)                 0.000000000000000E+00
(PID.TID 0000.0001)     ;
(PID.TID 0000.0001) pickup_write_mdsio =   /* Model IO flag. */
(PID.TID 0000.0001)                   F
(PID.TID 0000.0001)     ;
(PID.TID 0000.0001) pickup_read_mdsio =   /* Model IO flag. */
(PID.TID 0000.0001)                   F
(PID.TID 0000.0001)     ;
(PID.TID 0000.0001) pickup_write_mnc =   /* Model IO flag. */
(PID.TID 0000.0001)                   T
(PID.TID 0000.0001)     ;
(PID.TID 0000.0001) pickup_read_mnc =   /* Model IO flag. */
(PID.TID 0000.0001)                   T
(PID.TID 0000.0001)     ;
(PID.TID 0000.0001) pickup_write_immed =   /* Model IO flag. */
(PID.TID 0000.0001)                   F
(PID.TID 0000.0001)     ;
(PID.TID 0000.0001) dumpFreq =   /* Model state write out interval ( s ). */
(PID.TID 0000.0001)                 7.200000000000000E+03
(PID.TID 0000.0001)     ;
(PID.TID 0000.0001) snapshot_mdsio =   /* Model IO flag. */
(PID.TID 0000.0001)                   F
(PID.TID 0000.0001)     ;
(PID.TID 0000.0001) snapshot_mnc =   /* Model IO flag. */
(PID.TID 0000.0001)                   T
(PID.TID 0000.0001)     ;
(PID.TID 0000.0001) monitorFreq =   /* Monitor output interval ( s ). */
(PID.TID 0000.0001)                 1.200000000000000E+03
(PID.TID 0000.0001)     ;
(PID.TID 0000.0001) monitor_stdio =   /* Model IO flag. */
(PID.TID 0000.0001)                   T
(PID.TID 0000.0001)     ;
(PID.TID 0000.0001) monitor_mnc =   /* Model IO flag. */
(PID.TID 0000.0001)                   F
(PID.TID 0000.0001)     ;
(PID.TID 0000.0001) externForcingPeriod =   /* forcing period (s) */
(PID.TID 0000.0001)                 0.000000000000000E+00
(PID.TID 0000.0001)     ;
(PID.TID 0000.0001) externForcingCycle =   /* period of the cyle (s). */
(PID.TID 0000.0001)                 0.000000000000000E+00
(PID.TID 0000.0001)     ;
(PID.TID 0000.0001) tauThetaClimRelax =   /* relaxation time scale (s) */
(PID.TID 0000.0001)                 0.000000000000000E+00
(PID.TID 0000.0001)     ;
(PID.TID 0000.0001) tauSaltClimRelax =   /* relaxation time scale (s) */
(PID.TID 0000.0001)                 0.000000000000000E+00
(PID.TID 0000.0001)     ;
(PID.TID 0000.0001) latBandClimRelax =   /* max. Lat. where relaxation */
(PID.TID 0000.0001)                 6.760000000000000E+05
(PID.TID 0000.0001)     ;
(PID.TID 0000.0001) //
(PID.TID 0000.0001) // Gridding paramters ( PARM04 in namelist )
(PID.TID 0000.0001) //
(PID.TID 0000.0001) usingCartesianGrid =   /* Cartesian coordinates flag ( True / False ) */
(PID.TID 0000.0001)                   T
(PID.TID 0000.0001)     ;
(PID.TID 0000.0001) usingSphericalPolarGrid =   /* Spherical coordinates flag ( True / False ) */
(PID.TID 0000.0001)                   F
(PID.TID 0000.0001)     ;
(PID.TID 0000.0001) usingCylindricalGrid =   /* Spherical coordinates flag ( True / False ) */
(PID.TID 0000.0001)                   F
(PID.TID 0000.0001)     ;
(PID.TID 0000.0001) groundAtK1 =   /* Lower Boundary (ground) at the surface(k=1) ( T / F ) */
(PID.TID 0000.0001)                   F
(PID.TID 0000.0001)     ;
(PID.TID 0000.0001) Ro_SeaLevel =   /* r(1) ( units of r ) */
(PID.TID 0000.0001)                 0.000000000000000E+00
(PID.TID 0000.0001)     ;
(PID.TID 0000.0001) rkFac =   /* minus Vertical index orientation  */
(PID.TID 0000.0001)                 1.000000000000000E+00
(PID.TID 0000.0001)     ;
(PID.TID 0000.0001) horiVertRatio =   /* Ratio on units : Horiz - Vertical */
(PID.TID 0000.0001)                 1.000000000000000E+00
(PID.TID 0000.0001)     ;
(PID.TID 0000.0001) drC =   /* C spacing ( units of r ) */
(PID.TID 0000.0001)                 2.500000000000000E+00,      /* K =  1 */
(PID.TID 0000.0001)    39 @  5.000000000000000E+00              /* K =  2: 40 */
(PID.TID 0000.0001)     ;
(PID.TID 0000.0001) drF =   /* W spacing ( units of r ) */
(PID.TID 0000.0001)    40 @  5.000000000000000E+00              /* K =  1: 40 */
(PID.TID 0000.0001)     ;
(PID.TID 0000.0001) delX =   /* U spacing ( m - cartesian, degrees - spherical ) */
(PID.TID 0000.0001)    50 @  1.000000000000000E+03              /* I =  1: 50 */
(PID.TID 0000.0001)     ;
(PID.TID 0000.0001) delY =   /* V spacing ( m - cartesian, degrees - spherical ) */
(PID.TID 0000.0001)    26 @  1.000000000000000E+03              /* J =  1: 26 */
(PID.TID 0000.0001)     ;
(PID.TID 0000.0001) phiMin =    /* South edge (ignored - cartesian, degrees - spherical ) */
(PID.TID 0000.0001)                 0.000000000000000E+00
(PID.TID 0000.0001)     ;
(PID.TID 0000.0001) thetaMin =    /* West edge ( ignored - cartesian, degrees - spherical ) */
(PID.TID 0000.0001)                 0.000000000000000E+00
(PID.TID 0000.0001)     ;
(PID.TID 0000.0001) rSphere =    /* Radius ( ignored - cartesian, m - spherical ) */
(PID.TID 0000.0001)                 6.370000000000000E+06
(PID.TID 0000.0001)     ;
(PID.TID 0000.0001) xcoord =   /* P-point X coord ( m - cartesian, degrees - spherical ) */
(PID.TID 0000.0001)                 5.000000000000000E+02,      /* I =  1 */
(PID.TID 0000.0001)                 1.500000000000000E+03,      /* I =  2 */
(PID.TID 0000.0001)                 2.500000000000000E+03,      /* I =  3 */
(PID.TID 0000.0001)                 3.500000000000000E+03,      /* I =  4 */
(PID.TID 0000.0001)                 4.500000000000000E+03,      /* I =  5 */
(PID.TID 0000.0001)                 5.500000000000000E+03,      /* I =  6 */
(PID.TID 0000.0001)                 6.500000000000000E+03,      /* I =  7 */
(PID.TID 0000.0001)                 7.500000000000000E+03,      /* I =  8 */
(PID.TID 0000.0001)                 8.500000000000000E+03,      /* I =  9 */
(PID.TID 0000.0001)                 9.500000000000000E+03,      /* I = 10 */
(PID.TID 0000.0001)                 1.050000000000000E+04,      /* I = 11 */
(PID.TID 0000.0001)                 1.150000000000000E+04,      /* I = 12 */
(PID.TID 0000.0001)                 1.250000000000000E+04,      /* I = 13 */
(PID.TID 0000.0001)                 1.350000000000000E+04,      /* I = 14 */
(PID.TID 0000.0001)                 1.450000000000000E+04,      /* I = 15 */
(PID.TID 0000.0001)                 1.550000000000000E+04,      /* I = 16 */
(PID.TID 0000.0001)                 1.650000000000000E+04,      /* I = 17 */
(PID.TID 0000.0001)                 1.750000000000000E+04,      /* I = 18 */
(PID.TID 0000.0001)                 1.850000000000000E+04,      /* I = 19 */
(PID.TID 0000.0001)                 1.950000000000000E+04,      /* I = 20 */
(PID.TID 0000.0001)                 2.050000000000000E+04,      /* I = 21 */
(PID.TID 0000.0001)                 2.150000000000000E+04,      /* I = 22 */
(PID.TID 0000.0001)                 2.250000000000000E+04,      /* I = 23 */
(PID.TID 0000.0001)                 2.350000000000000E+04,      /* I = 24 */
(PID.TID 0000.0001)                 2.450000000000000E+04,      /* I = 25 */
(PID.TID 0000.0001)                 2.550000000000000E+04,      /* I = 26 */
(PID.TID 0000.0001)                 2.650000000000000E+04,      /* I = 27 */
(PID.TID 0000.0001)                 2.750000000000000E+04,      /* I = 28 */
(PID.TID 0000.0001)                 2.850000000000000E+04,      /* I = 29 */
(PID.TID 0000.0001)                 2.950000000000000E+04,      /* I = 30 */
(PID.TID 0000.0001)                 3.050000000000000E+04,      /* I = 31 */
(PID.TID 0000.0001)                 3.150000000000000E+04,      /* I = 32 */
(PID.TID 0000.0001)                 3.250000000000000E+04,      /* I = 33 */
(PID.TID 0000.0001)                 3.350000000000000E+04,      /* I = 34 */
(PID.TID 0000.0001)                 3.450000000000000E+04,      /* I = 35 */
(PID.TID 0000.0001)                 3.550000000000000E+04,      /* I = 36 */
(PID.TID 0000.0001)                 3.650000000000000E+04,      /* I = 37 */
(PID.TID 0000.0001)                 3.750000000000000E+04,      /* I = 38 */
(PID.TID 0000.0001)                 3.850000000000000E+04,      /* I = 39 */
(PID.TID 0000.0001)                 3.950000000000000E+04,      /* I = 40 */
(PID.TID 0000.0001)                 4.050000000000000E+04,      /* I = 41 */
(PID.TID 0000.0001)                 4.150000000000000E+04,      /* I = 42 */
(PID.TID 0000.0001)                 4.250000000000000E+04,      /* I = 43 */
(PID.TID 0000.0001)                 4.350000000000000E+04,      /* I = 44 */
(PID.TID 0000.0001)                 4.450000000000000E+04,      /* I = 45 */
(PID.TID 0000.0001)                 4.550000000000000E+04,      /* I = 46 */
(PID.TID 0000.0001)                 4.650000000000000E+04,      /* I = 47 */
(PID.TID 0000.0001)                 4.750000000000000E+04,      /* I = 48 */
(PID.TID 0000.0001)                 4.850000000000000E+04,      /* I = 49 */
(PID.TID 0000.0001)                 4.950000000000000E+04       /* I = 50 */
(PID.TID 0000.0001)     ;
(PID.TID 0000.0001) ycoord =   /* P-point Y coord ( m - cartesian, degrees - spherical ) */
(PID.TID 0000.0001)                 5.000000000000000E+02,      /* J =  1 */
(PID.TID 0000.0001)                 1.500000000000000E+03,      /* J =  2 */
(PID.TID 0000.0001)                 2.500000000000000E+03,      /* J =  3 */
(PID.TID 0000.0001)                 3.500000000000000E+03,      /* J =  4 */
(PID.TID 0000.0001)                 4.500000000000000E+03,      /* J =  5 */
(PID.TID 0000.0001)                 5.500000000000000E+03,      /* J =  6 */
(PID.TID 0000.0001)                 6.500000000000000E+03,      /* J =  7 */
(PID.TID 0000.0001)                 7.500000000000000E+03,      /* J =  8 */
(PID.TID 0000.0001)                 8.500000000000000E+03,      /* J =  9 */
(PID.TID 0000.0001)                 9.500000000000000E+03,      /* J = 10 */
(PID.TID 0000.0001)                 1.050000000000000E+04,      /* J = 11 */
(PID.TID 0000.0001)                 1.150000000000000E+04,      /* J = 12 */
(PID.TID 0000.0001)                 1.250000000000000E+04,      /* J = 13 */
(PID.TID 0000.0001)                 1.350000000000000E+04,      /* J = 14 */
(PID.TID 0000.0001)                 1.450000000000000E+04,      /* J = 15 */
(PID.TID 0000.0001)                 1.550000000000000E+04,      /* J = 16 */
(PID.TID 0000.0001)                 1.650000000000000E+04,      /* J = 17 */
(PID.TID 0000.0001)                 1.750000000000000E+04,      /* J = 18 */
(PID.TID 0000.0001)                 1.850000000000000E+04,      /* J = 19 */
(PID.TID 0000.0001)                 1.950000000000000E+04,      /* J = 20 */
(PID.TID 0000.0001)                 2.050000000000000E+04,      /* J = 21 */
(PID.TID 0000.0001)                 2.150000000000000E+04,      /* J = 22 */
(PID.TID 0000.0001)                 2.250000000000000E+04,      /* J = 23 */
(PID.TID 0000.0001)                 2.350000000000000E+04,      /* J = 24 */
(PID.TID 0000.0001)                 2.450000000000000E+04,      /* J = 25 */
(PID.TID 0000.0001)                 2.550000000000000E+04       /* J = 26 */
(PID.TID 0000.0001)     ;
(PID.TID 0000.0001) rcoord =   /* P-point R coordinate (  units of r ) */
(PID.TID 0000.0001)                -2.500000000000000E+00,      /* K =  1 */
(PID.TID 0000.0001)                -7.500000000000000E+00,      /* K =  2 */
(PID.TID 0000.0001)                -1.250000000000000E+01,      /* K =  3 */
(PID.TID 0000.0001)                -1.750000000000000E+01,      /* K =  4 */
(PID.TID 0000.0001)                -2.250000000000000E+01,      /* K =  5 */
(PID.TID 0000.0001)                -2.750000000000000E+01,      /* K =  6 */
(PID.TID 0000.0001)                -3.250000000000000E+01,      /* K =  7 */
(PID.TID 0000.0001)                -3.750000000000000E+01,      /* K =  8 */
(PID.TID 0000.0001)                -4.250000000000000E+01,      /* K =  9 */
(PID.TID 0000.0001)                -4.750000000000000E+01,      /* K = 10 */
(PID.TID 0000.0001)                -5.250000000000000E+01,      /* K = 11 */
(PID.TID 0000.0001)                -5.750000000000000E+01,      /* K = 12 */
(PID.TID 0000.0001)                -6.250000000000000E+01,      /* K = 13 */
(PID.TID 0000.0001)                -6.750000000000000E+01,      /* K = 14 */
(PID.TID 0000.0001)                -7.250000000000000E+01,      /* K = 15 */
(PID.TID 0000.0001)                -7.750000000000000E+01,      /* K = 16 */
(PID.TID 0000.0001)                -8.250000000000000E+01,      /* K = 17 */
(PID.TID 0000.0001)                -8.750000000000000E+01,      /* K = 18 */
(PID.TID 0000.0001)                -9.250000000000000E+01,      /* K = 19 */
(PID.TID 0000.0001)                -9.750000000000000E+01,      /* K = 20 */
(PID.TID 0000.0001)                -1.025000000000000E+02,      /* K = 21 */
(PID.TID 0000.0001)                -1.075000000000000E+02,      /* K = 22 */
(PID.TID 0000.0001)                -1.125000000000000E+02,      /* K = 23 */
(PID.TID 0000.0001)                -1.175000000000000E+02,      /* K = 24 */
(PID.TID 0000.0001)                -1.225000000000000E+02,      /* K = 25 */
(PID.TID 0000.0001)                -1.275000000000000E+02,      /* K = 26 */
(PID.TID 0000.0001)                -1.325000000000000E+02,      /* K = 27 */
(PID.TID 0000.0001)                -1.375000000000000E+02,      /* K = 28 */
(PID.TID 0000.0001)                -1.425000000000000E+02,      /* K = 29 */
(PID.TID 0000.0001)                -1.475000000000000E+02,      /* K = 30 */
(PID.TID 0000.0001)                -1.525000000000000E+02,      /* K = 31 */
(PID.TID 0000.0001)                -1.575000000000000E+02,      /* K = 32 */
(PID.TID 0000.0001)                -1.625000000000000E+02,      /* K = 33 */
(PID.TID 0000.0001)                -1.675000000000000E+02,      /* K = 34 */
(PID.TID 0000.0001)                -1.725000000000000E+02,      /* K = 35 */
(PID.TID 0000.0001)                -1.775000000000000E+02,      /* K = 36 */
(PID.TID 0000.0001)                -1.825000000000000E+02,      /* K = 37 */
(PID.TID 0000.0001)                -1.875000000000000E+02,      /* K = 38 */
(PID.TID 0000.0001)                -1.925000000000000E+02,      /* K = 39 */
(PID.TID 0000.0001)                -1.975000000000000E+02       /* K = 40 */
(PID.TID 0000.0001)     ;
(PID.TID 0000.0001) rF =   /* W-Interf. R coordinate (  units of r ) */
(PID.TID 0000.0001)                 0.000000000000000E+00,      /* K =  1 */
(PID.TID 0000.0001)                -5.000000000000000E+00,      /* K =  2 */
(PID.TID 0000.0001)                -1.000000000000000E+01,      /* K =  3 */
(PID.TID 0000.0001)                -1.500000000000000E+01,      /* K =  4 */
(PID.TID 0000.0001)                -2.000000000000000E+01,      /* K =  5 */
(PID.TID 0000.0001)                -2.500000000000000E+01,      /* K =  6 */
(PID.TID 0000.0001)                -3.000000000000000E+01,      /* K =  7 */
(PID.TID 0000.0001)                -3.500000000000000E+01,      /* K =  8 */
(PID.TID 0000.0001)                -4.000000000000000E+01,      /* K =  9 */
(PID.TID 0000.0001)                -4.500000000000000E+01,      /* K = 10 */
(PID.TID 0000.0001)                -5.000000000000000E+01,      /* K = 11 */
(PID.TID 0000.0001)                -5.500000000000000E+01,      /* K = 12 */
(PID.TID 0000.0001)                -6.000000000000000E+01,      /* K = 13 */
(PID.TID 0000.0001)                -6.500000000000000E+01,      /* K = 14 */
(PID.TID 0000.0001)                -7.000000000000000E+01,      /* K = 15 */
(PID.TID 0000.0001)                -7.500000000000000E+01,      /* K = 16 */
(PID.TID 0000.0001)                -8.000000000000000E+01,      /* K = 17 */
(PID.TID 0000.0001)                -8.500000000000000E+01,      /* K = 18 */
(PID.TID 0000.0001)                -9.000000000000000E+01,      /* K = 19 */
(PID.TID 0000.0001)                -9.500000000000000E+01,      /* K = 20 */
(PID.TID 0000.0001)                -1.000000000000000E+02,      /* K = 21 */
(PID.TID 0000.0001)                -1.050000000000000E+02,      /* K = 22 */
(PID.TID 0000.0001)                -1.100000000000000E+02,      /* K = 23 */
(PID.TID 0000.0001)                -1.150000000000000E+02,      /* K = 24 */
(PID.TID 0000.0001)                -1.200000000000000E+02,      /* K = 25 */
(PID.TID 0000.0001)                -1.250000000000000E+02,      /* K = 26 */
(PID.TID 0000.0001)                -1.300000000000000E+02,      /* K = 27 */
(PID.TID 0000.0001)                -1.350000000000000E+02,      /* K = 28 */
(PID.TID 0000.0001)                -1.400000000000000E+02,      /* K = 29 */
(PID.TID 0000.0001)                -1.450000000000000E+02,      /* K = 30 */
(PID.TID 0000.0001)                -1.500000000000000E+02,      /* K = 31 */
(PID.TID 0000.0001)                -1.550000000000000E+02,      /* K = 32 */
(PID.TID 0000.0001)                -1.600000000000000E+02,      /* K = 33 */
(PID.TID 0000.0001)                -1.650000000000000E+02,      /* K = 34 */
(PID.TID 0000.0001)                -1.700000000000000E+02,      /* K = 35 */
(PID.TID 0000.0001)                -1.750000000000000E+02,      /* K = 36 */
(PID.TID 0000.0001)                -1.800000000000000E+02,      /* K = 37 */
(PID.TID 0000.0001)                -1.850000000000000E+02,      /* K = 38 */
(PID.TID 0000.0001)                -1.900000000000000E+02,      /* K = 39 */
(PID.TID 0000.0001)                -1.950000000000000E+02,      /* K = 40 */
(PID.TID 0000.0001)                -2.000000000000000E+02       /* K = 41 */
(PID.TID 0000.0001)     ;
(PID.TID 0000.0001) dxF =  /* dxF(:,1,:,1) ( m - cartesian, degrees - spherical ) */
(PID.TID 0000.0001)    50 @  1.000000000000000E+03              /* I =  1: 50 */
(PID.TID 0000.0001)     ;
(PID.TID 0000.0001) dxF =  /* dxF(1,:,1,:) ( m - cartesian, degrees - spherical ) */
(PID.TID 0000.0001)    26 @  1.000000000000000E+03              /* J =  1: 26 */
(PID.TID 0000.0001)     ;
(PID.TID 0000.0001) dyF =  /* dyF(:,1,:,1) ( m - cartesian, degrees - spherical ) */
(PID.TID 0000.0001)    50 @  1.000000000000000E+03              /* I =  1: 50 */
(PID.TID 0000.0001)     ;
(PID.TID 0000.0001) dyF =  /* dyF(1,:,1,:) ( m - cartesian, degrees - spherical ) */
(PID.TID 0000.0001)    26 @  1.000000000000000E+03              /* J =  1: 26 */
(PID.TID 0000.0001)     ;
(PID.TID 0000.0001) dxG =  /* dxG(:,1,:,1) ( m - cartesian, degrees - spherical ) */
(PID.TID 0000.0001)    50 @  1.000000000000000E+03              /* I =  1: 50 */
(PID.TID 0000.0001)     ;
(PID.TID 0000.0001) dxG =  /* dxG(1,:,1,:) ( m - cartesian, degrees - spherical ) */
(PID.TID 0000.0001)    26 @  1.000000000000000E+03              /* J =  1: 26 */
(PID.TID 0000.0001)     ;
(PID.TID 0000.0001) dyG =  /* dyG(:,1,:,1) ( m - cartesian, degrees - spherical ) */
(PID.TID 0000.0001)    50 @  1.000000000000000E+03              /* I =  1: 50 */
(PID.TID 0000.0001)     ;
(PID.TID 0000.0001) dyG =  /* dyG(1,:,1,:) ( m - cartesian, degrees - spherical ) */
(PID.TID 0000.0001)    26 @  1.000000000000000E+03              /* J =  1: 26 */
(PID.TID 0000.0001)     ;
(PID.TID 0000.0001) dxC =  /* dxC(:,1,:,1) ( m - cartesian, degrees - spherical ) */
(PID.TID 0000.0001)    50 @  1.000000000000000E+03              /* I =  1: 50 */
(PID.TID 0000.0001)     ;
(PID.TID 0000.0001) dxC =  /* dxC(1,:,1,:) ( m - cartesian, degrees - spherical ) */
(PID.TID 0000.0001)    26 @  1.000000000000000E+03              /* J =  1: 26 */
(PID.TID 0000.0001)     ;
(PID.TID 0000.0001) dyC =  /* dyC(:,1,:,1) ( m - cartesian, degrees - spherical ) */
(PID.TID 0000.0001)    50 @  1.000000000000000E+03              /* I =  1: 50 */
(PID.TID 0000.0001)     ;
(PID.TID 0000.0001) dyC =  /* dyC(1,:,1,:) ( m - cartesian, degrees - spherical ) */
(PID.TID 0000.0001)    26 @  1.000000000000000E+03              /* J =  1: 26 */
(PID.TID 0000.0001)     ;
(PID.TID 0000.0001) dxV =  /* dxV(:,1,:,1) ( m - cartesian, degrees - spherical ) */
(PID.TID 0000.0001)    50 @  1.000000000000000E+03              /* I =  1: 50 */
(PID.TID 0000.0001)     ;
(PID.TID 0000.0001) dxV =  /* dxV(1,:,1,:) ( m - cartesian, degrees - spherical ) */
(PID.TID 0000.0001)    26 @  1.000000000000000E+03              /* J =  1: 26 */
(PID.TID 0000.0001)     ;
(PID.TID 0000.0001) dyU =  /* dyU(:,1,:,1) ( m - cartesian, degrees - spherical ) */
(PID.TID 0000.0001)    50 @  1.000000000000000E+03              /* I =  1: 50 */
(PID.TID 0000.0001)     ;
(PID.TID 0000.0001) dyU =  /* dyU(1,:,1,:) ( m - cartesian, degrees - spherical ) */
(PID.TID 0000.0001)    26 @  1.000000000000000E+03              /* J =  1: 26 */
(PID.TID 0000.0001)     ;
(PID.TID 0000.0001) rA =  /* rA(:,1,:,1) ( m - cartesian, degrees - spherical ) */
(PID.TID 0000.0001)    50 @  1.000000000000000E+06              /* I =  1: 50 */
(PID.TID 0000.0001)     ;
(PID.TID 0000.0001) rA =  /* rA(1,:,1,:) ( m - cartesian, degrees - spherical ) */
(PID.TID 0000.0001)    26 @  1.000000000000000E+06              /* J =  1: 26 */
(PID.TID 0000.0001)     ;
(PID.TID 0000.0001) rAw =  /* rAw(:,1,:,1) ( m - cartesian, degrees - spherical ) */
(PID.TID 0000.0001)    50 @  1.000000000000000E+06              /* I =  1: 50 */
(PID.TID 0000.0001)     ;
(PID.TID 0000.0001) rAw =  /* rAw(1,:,1,:) ( m - cartesian, degrees - spherical ) */
(PID.TID 0000.0001)    26 @  1.000000000000000E+06              /* J =  1: 26 */
(PID.TID 0000.0001)     ;
(PID.TID 0000.0001) rAs =  /* rAs(:,1,:,1) ( m - cartesian, degrees - spherical ) */
(PID.TID 0000.0001)    50 @  1.000000000000000E+06              /* I =  1: 50 */
(PID.TID 0000.0001)     ;
(PID.TID 0000.0001) rAs =  /* rAs(1,:,1,:) ( m - cartesian, degrees - spherical ) */
(PID.TID 0000.0001)    26 @  1.000000000000000E+06              /* J =  1: 26 */
(PID.TID 0000.0001)     ;
(PID.TID 0000.0001) 
(PID.TID 0000.0001)  MDSREADFIELD: opening global file: thetaInitial.bin
(PID.TID 0000.0001) // =======================================================
(PID.TID 0000.0001) // Field Initial Temperature at iteration          1
(PID.TID 0000.0001) // CMIN =          1.697960818898681E+01
(PID.TID 0000.0001) // CMAX =          1.702039187270994E+01
(PID.TID 0000.0001) // CINT =          1.510506804560531E-03
(PID.TID 0000.0001) // SYMBOLS (CMIN->CMAX): -abcdefghijklmnopqrstuvwxyz+
(PID.TID 0000.0001) //                  0.0: .
(PID.TID 0000.0001) // RANGE I (Lo:Hi:Step):(   1:  50:   1)
(PID.TID 0000.0001) // RANGE J (Lo:Hi:Step):(  26:   1:  -1)
(PID.TID 0000.0001) // RANGE K (Lo:Hi:Step):(   1:   1:   1)
(PID.TID 0000.0001) // =======================================================
(PID.TID 0000.0001) K =   1
(PID.TID 0000.0001)                I=10      I=20      I=30      I=40      I=50
(PID.TID 0000.0001) |--J--|123456789|123456789|123456789|123456789|123456789|
(PID.TID 0000.0001)     26 ..................................................
(PID.TID 0000.0001)     25 --------------------------------------------------
(PID.TID 0000.0001)     24 --------------------------------------------------
(PID.TID 0000.0001)     23 --------------------------------------------------
(PID.TID 0000.0001)     22 --------------------------------------------------
(PID.TID 0000.0001)     21 --------------------------------------------------
(PID.TID 0000.0001)     20 --------------------------------------------------
(PID.TID 0000.0001)     19 --------------------------------------------------
(PID.TID 0000.0001)     18 --------------------------------------------------
(PID.TID 0000.0001)     17 --------------------------------------------------
(PID.TID 0000.0001)     16 aaaaaaaaaaaaaaaaaaaaaaaaaaaaaaaaaaaaaaaaaaaaaaaaaa
(PID.TID 0000.0001)     15 cccccccccccccccccccccccccccccccccccccccccccccccccc
(PID.TID 0000.0001)     14 gggggggggggggggggggggggggggggggggggggggggggggggggg
(PID.TID 0000.0001)     13 nnnnnnmnnnmnmmnmnnnnmnmmnmmnnnmnmnnmnnmmnnmmnmnmmn
(PID.TID 0000.0001)     12 tttttttttttttttttttttttttttttttttttttttttttttttttt
(PID.TID 0000.0001)     11 xxxxxxxxxxxxxxxxxxxxxxxxxxxxxxxxxxxxxxxxxxxxxxxxxx
(PID.TID 0000.0001)     10 zzzzzzzzzzzzzzzzzzzzzzzzzzzzzzzzzzzzzzzzzzzzzzzzzz
(PID.TID 0000.0001)      9 ++++++++++++++++++++++++++++++++++++++++++++++++++
(PID.TID 0000.0001)      8 ++++++++++++++++++++++++++++++++++++++++++++++++++
(PID.TID 0000.0001)      7 ++++++++++++++++++++++++++++++++++++++++++++++++++
(PID.TID 0000.0001)      6 ++++++++++++++++++++++++++++++++++++++++++++++++++
(PID.TID 0000.0001)      5 ++++++++++++++++++++++++++++++++++++++++++++++++++
(PID.TID 0000.0001)      4 ++++++++++++++++++++++++++++++++++++++++++++++++++
(PID.TID 0000.0001)      3 ++++++++++++++++++++++++++++++++++++++++++++++++++
(PID.TID 0000.0001)      2 ++++++++++++++++++++++++++++++++++++++++++++++++++
(PID.TID 0000.0001)      1 ++++++++++++++++++++++++++++++++++++++++++++++++++
(PID.TID 0000.0001) // =======================================================
(PID.TID 0000.0001) // END OF FIELD                                          =
(PID.TID 0000.0001) // =======================================================
(PID.TID 0000.0001) 
(PID.TID 0000.0001)  MDSREADFIELD: opening global file: spiceInitial.bin
(PID.TID 0000.0001) // =======================================================
(PID.TID 0000.0001) // Field Initial Salinity at iteration          1
(PID.TID 0000.0001) // CMIN =          1.697961298285419E+01
(PID.TID 0000.0001) // CMAX =          1.702038710930990E+01
(PID.TID 0000.0001) // CINT =          1.510152831693316E-03
(PID.TID 0000.0001) // SYMBOLS (CMIN->CMAX): -abcdefghijklmnopqrstuvwxyz+
(PID.TID 0000.0001) //                  0.0: .
(PID.TID 0000.0001) // RANGE I (Lo:Hi:Step):(   1:  50:   1)
(PID.TID 0000.0001) // RANGE J (Lo:Hi:Step):(  26:   1:  -1)
(PID.TID 0000.0001) // RANGE K (Lo:Hi:Step):(   1:   1:   1)
(PID.TID 0000.0001) // =======================================================
(PID.TID 0000.0001) K =   1
(PID.TID 0000.0001)                I=10      I=20      I=30      I=40      I=50
(PID.TID 0000.0001) |--J--|123456789|123456789|123456789|123456789|123456789|
(PID.TID 0000.0001)     26 ..................................................
(PID.TID 0000.0001)     25 +++++++++zxtmgca------------------acgmtxz+++++++++
(PID.TID 0000.0001)     24 +++++++++zxtmgca------------------acgmtxz+++++++++
(PID.TID 0000.0001)     23 +++++++++zxtmgca------------------acgmtxz+++++++++
(PID.TID 0000.0001)     22 +++++++++zxtmgca------------------acgmtxz+++++++++
(PID.TID 0000.0001)     21 +++++++++zxtmgca------------------acgmtxz+++++++++
(PID.TID 0000.0001)     20 +++++++++zxtmgca------------------acgmtxz+++++++++
(PID.TID 0000.0001)     19 +++++++++zxtmgca------------------acgmtxz+++++++++
(PID.TID 0000.0001)     18 +++++++++zxtmgca------------------acgmtxz+++++++++
(PID.TID 0000.0001)     17 +++++++++zxtmgca------------------acgmtxz+++++++++
(PID.TID 0000.0001)     16 +++++++++zxtmgca------------------acgmtxz+++++++++
(PID.TID 0000.0001)     15 +++++++++zxtmgca------------------acgmtxz+++++++++
(PID.TID 0000.0001)     14 +++++++++zxtmgca------------------acgmtxz+++++++++
(PID.TID 0000.0001)     13 +++++++++zxtmgca------------------acgmtxz+++++++++
(PID.TID 0000.0001)     12 +++++++++zxtmgca------------------acgmtxz+++++++++
(PID.TID 0000.0001)     11 +++++++++zxtmgca------------------acgmtxz+++++++++
(PID.TID 0000.0001)     10 +++++++++zxtmgca------------------acgmtxz+++++++++
(PID.TID 0000.0001)      9 +++++++++zxtmgca------------------acgmtxz+++++++++
(PID.TID 0000.0001)      8 +++++++++zxtmgca------------------acgmtxz+++++++++
(PID.TID 0000.0001)      7 +++++++++zxtmgca------------------acgmtxz+++++++++
(PID.TID 0000.0001)      6 +++++++++zxtmgca------------------acgmtxz+++++++++
(PID.TID 0000.0001)      5 +++++++++zxtmgca------------------acgmtxz+++++++++
(PID.TID 0000.0001)      4 +++++++++zxtmgca------------------acgmtxz+++++++++
(PID.TID 0000.0001)      3 +++++++++zxtmgca------------------acgmtxz+++++++++
(PID.TID 0000.0001)      2 +++++++++zxtmgca------------------acgmtxz+++++++++
(PID.TID 0000.0001)      1 +++++++++zxtmgca------------------acgmtxz+++++++++
(PID.TID 0000.0001) // =======================================================
(PID.TID 0000.0001) // END OF FIELD                                          =
(PID.TID 0000.0001) // =======================================================
(PID.TID 0000.0001) 
(PID.TID 0000.0001) Start initial hydrostatic pressure computation
(PID.TID 0000.0001) Pressure is predetermined for buoyancyRelation OCEANIC
(PID.TID 0000.0001) 
(PID.TID 0000.0001) // =======================================================
(PID.TID 0000.0001) // Model current state
(PID.TID 0000.0001) // =======================================================
(PID.TID 0000.0001) 
(PID.TID 0000.0001) // =======================================================
(PID.TID 0000.0001) // Begin MONITOR dynamic field statistics
(PID.TID 0000.0001) // =======================================================
(PID.TID 0000.0001) %MON time_tsnumber                =                     0
(PID.TID 0000.0001) %MON time_secondsf                =   0.0000000000000E+00
(PID.TID 0000.0001) %MON dynstat_eta_max              =   0.0000000000000E+00
(PID.TID 0000.0001) %MON dynstat_eta_min              =   0.0000000000000E+00
(PID.TID 0000.0001) %MON dynstat_eta_mean             =   0.0000000000000E+00
(PID.TID 0000.0001) %MON dynstat_eta_sd               =   0.0000000000000E+00
(PID.TID 0000.0001) %MON dynstat_eta_del2             =   0.0000000000000E+00
(PID.TID 0000.0001) %MON dynstat_uvel_max             =   0.0000000000000E+00
(PID.TID 0000.0001) %MON dynstat_uvel_min             =   0.0000000000000E+00
(PID.TID 0000.0001) %MON dynstat_uvel_mean            =   0.0000000000000E+00
(PID.TID 0000.0001) %MON dynstat_uvel_sd              =   0.0000000000000E+00
(PID.TID 0000.0001) %MON dynstat_uvel_del2            =   0.0000000000000E+00
(PID.TID 0000.0001) %MON dynstat_vvel_max             =   0.0000000000000E+00
(PID.TID 0000.0001) %MON dynstat_vvel_min             =   0.0000000000000E+00
(PID.TID 0000.0001) %MON dynstat_vvel_mean            =   0.0000000000000E+00
(PID.TID 0000.0001) %MON dynstat_vvel_sd              =   0.0000000000000E+00
(PID.TID 0000.0001) %MON dynstat_vvel_del2            =   0.0000000000000E+00
(PID.TID 0000.0001) %MON dynstat_wvel_max             =   0.0000000000000E+00
(PID.TID 0000.0001) %MON dynstat_wvel_min             =   0.0000000000000E+00
(PID.TID 0000.0001) %MON dynstat_wvel_mean            =   0.0000000000000E+00
(PID.TID 0000.0001) %MON dynstat_wvel_sd              =   0.0000000000000E+00
(PID.TID 0000.0001) %MON dynstat_wvel_del2            =   0.0000000000000E+00
(PID.TID 0000.0001) %MON dynstat_theta_max            =   1.7020391872710E+01
(PID.TID 0000.0001) %MON dynstat_theta_min            =   1.6979608188987E+01
(PID.TID 0000.0001) %MON dynstat_theta_mean           =   1.6999999951796E+01
(PID.TID 0000.0001) %MON dynstat_theta_sd             =   1.8685323590466E-02
(PID.TID 0000.0001) %MON dynstat_theta_del2           =   1.8923397613303E-04
(PID.TID 0000.0001) %MON dynstat_salt_max             =   1.7020387109310E+01
(PID.TID 0000.0001) %MON dynstat_salt_min             =   1.6979612982854E+01
(PID.TID 0000.0001) %MON dynstat_salt_mean            =   1.7000000005831E+01
(PID.TID 0000.0001) %MON dynstat_salt_sd              =   1.8685329922586E-02
(PID.TID 0000.0001) %MON dynstat_salt_del2            =   1.8842697543015E-04
(PID.TID 0000.0001) %MON advcfl_uvel_max              =   0.0000000000000E+00
(PID.TID 0000.0001) %MON advcfl_vvel_max              =   0.0000000000000E+00
(PID.TID 0000.0001) %MON advcfl_wvel_max              =   0.0000000000000E+00
(PID.TID 0000.0001) %MON advcfl_W_hf_max              =   0.0000000000000E+00
(PID.TID 0000.0001) %MON pe_b_mean                    =   0.0000000000000E+00
(PID.TID 0000.0001) %MON ke_max                       =   0.0000000000000E+00
(PID.TID 0000.0001) %MON ke_mean                      =   0.0000000000000E+00
(PID.TID 0000.0001) %MON ke_vol                       =   2.5000000000000E+11
(PID.TID 0000.0001) %MON vort_r_min                   =   0.0000000000000E+00
(PID.TID 0000.0001) %MON vort_r_max                   =   0.0000000000000E+00
(PID.TID 0000.0001) %MON vort_a_mean                  =   7.2900000000000E-05
(PID.TID 0000.0001) %MON vort_a_sd                    =  -1.5279854090138E-21
(PID.TID 0000.0001) %MON vort_p_mean                  =   7.7363265306122E-05
(PID.TID 0000.0001) %MON vort_p_sd                    =   3.0922409111393E-05
(PID.TID 0000.0001) %MON surfExpan_theta_mean         =   0.0000000000000E+00
(PID.TID 0000.0001) %MON surfExpan_salt_mean          =   0.0000000000000E+00
(PID.TID 0000.0001) // =======================================================
(PID.TID 0000.0001) // End MONITOR dynamic field statistics
(PID.TID 0000.0001) // =======================================================
 cg2d: Sum(rhs),rhsMax =  -4.61909156757034E-14  6.56468600582941E-04
(PID.TID 0000.0001)                    cg2d_init_res =    1.48626964519167E+01
(PID.TID 0000.0001)                       cg2d_iters =    87
(PID.TID 0000.0001)                         cg2d_res =    7.06118400970811E-12
(PID.TID 0000.0001) // =======================================================
(PID.TID 0000.0001) // Begin MONITOR dynamic field statistics
(PID.TID 0000.0001) // =======================================================
(PID.TID 0000.0001) %MON time_tsnumber                =                     1
(PID.TID 0000.0001) %MON time_secondsf                =   1.2000000000000E+03
(PID.TID 0000.0001) %MON dynstat_eta_max              =   3.9842268071141E-04
(PID.TID 0000.0001) %MON dynstat_eta_min              =  -3.9842837043612E-04
(PID.TID 0000.0001) %MON dynstat_eta_mean             =  -1.7147758563096E-18
(PID.TID 0000.0001) %MON dynstat_eta_sd               =   3.6612608254614E-04
(PID.TID 0000.0001) %MON dynstat_eta_del2             =   3.7667288738548E-06
(PID.TID 0000.0001) %MON dynstat_uvel_max             =   2.2315490356453E-06
(PID.TID 0000.0001) %MON dynstat_uvel_min             =  -2.2323475667809E-06
(PID.TID 0000.0001) %MON dynstat_uvel_mean            =   8.5081770065826E-21
(PID.TID 0000.0001) %MON dynstat_uvel_sd              =   5.5728774979329E-07
(PID.TID 0000.0001) %MON dynstat_uvel_del2            =   5.0688460612198E-07
(PID.TID 0000.0001) %MON dynstat_vvel_max             =   2.1242623157435E-03
(PID.TID 0000.0001) %MON dynstat_vvel_min             =  -2.1611393741625E-03
(PID.TID 0000.0001) %MON dynstat_vvel_mean            =  -1.0578841014776E-05
(PID.TID 0000.0001) %MON dynstat_vvel_sd              =   4.5720682499468E-04
(PID.TID 0000.0001) %MON dynstat_vvel_del2            =   1.6397313636427E-05
(PID.TID 0000.0001) %MON dynstat_wvel_max             =   3.9331661790402E-05
(PID.TID 0000.0001) %MON dynstat_wvel_min             =  -3.9418748886642E-05
(PID.TID 0000.0001) %MON dynstat_wvel_mean            =   3.2704586437885E-23
(PID.TID 0000.0001) %MON dynstat_wvel_sd              =   1.2210114568747E-05
(PID.TID 0000.0001) %MON dynstat_wvel_del2            =   1.0244826288415E-06
(PID.TID 0000.0001) %MON dynstat_theta_max            =   1.7020391872709E+01
(PID.TID 0000.0001) %MON dynstat_theta_min            =   1.6979608188987E+01
(PID.TID 0000.0001) %MON dynstat_theta_mean           =   1.6999999917591E+01
(PID.TID 0000.0001) %MON dynstat_theta_sd             =   1.8685309706644E-02
(PID.TID 0000.0001) %MON dynstat_theta_del2           =   1.8924933377129E-04
(PID.TID 0000.0001) %MON dynstat_salt_max             =   1.7020387109310E+01
(PID.TID 0000.0001) %MON dynstat_salt_min             =   1.6979612982854E+01
(PID.TID 0000.0001) %MON dynstat_salt_mean            =   1.7000000005831E+01
(PID.TID 0000.0001) %MON dynstat_salt_sd              =   1.8685329918564E-02
(PID.TID 0000.0001) %MON dynstat_salt_del2            =   1.8842707866046E-04
(PID.TID 0000.0001) %MON advcfl_uvel_max              =   2.6788170801371E-06
(PID.TID 0000.0001) %MON advcfl_vvel_max              =   2.5933672489949E-03
(PID.TID 0000.0001) %MON advcfl_wvel_max              =   9.4604997327942E-03
(PID.TID 0000.0001) %MON advcfl_W_hf_max              =   9.4604997327942E-03
(PID.TID 0000.0001) %MON pe_b_mean                    =   3.2875347615623E-09
(PID.TID 0000.0001) %MON ke_max                       =   2.3327445399791E-06
(PID.TID 0000.0001) %MON ke_mean                      =   1.0039215178031E-07
(PID.TID 0000.0001) %MON ke_vol                       =   2.5000000000000E+11
(PID.TID 0000.0001) %MON vort_r_min                   =  -2.0535650422839E-09
(PID.TID 0000.0001) %MON vort_r_max                   =   2.0537052949132E-09
(PID.TID 0000.0001) %MON vort_a_mean                  =   7.2900000000000E-05
(PID.TID 0000.0001) %MON vort_a_sd                    =   1.4683340210353E-10
(PID.TID 0000.0001) %MON vort_p_mean                  =   7.7363265306122E-05
(PID.TID 0000.0001) %MON vort_p_sd                    =   3.0922409112957E-05
(PID.TID 0000.0001) %MON surfExpan_theta_mean         =   5.7008897736239E-09
(PID.TID 0000.0001) %MON surfExpan_salt_mean          =  -1.1711270286082E-14
(PID.TID 0000.0001) // =======================================================
(PID.TID 0000.0001) // End MONITOR dynamic field statistics
(PID.TID 0000.0001) // =======================================================
 cg2d: Sum(rhs),rhsMax =   5.51045754165758E-14  6.57694596601836E-04
(PID.TID 0000.0001)                    cg2d_init_res =    1.36668517188141E-01
(PID.TID 0000.0001)                       cg2d_iters =    74
(PID.TID 0000.0001)                         cg2d_res =    8.23328942094518E-12
(PID.TID 0000.0001) // =======================================================
(PID.TID 0000.0001) // Begin MONITOR dynamic field statistics
(PID.TID 0000.0001) // =======================================================
(PID.TID 0000.0001) %MON time_tsnumber                =                     2
(PID.TID 0000.0001) %MON time_secondsf                =   2.4000000000000E+03
(PID.TID 0000.0001) %MON dynstat_eta_max              =   4.1813944789651E-04
(PID.TID 0000.0001) %MON dynstat_eta_min              =  -4.1811697781553E-04
(PID.TID 0000.0001) %MON dynstat_eta_mean             =   1.5472707953768E-18
(PID.TID 0000.0001) %MON dynstat_eta_sd               =   3.8096000819052E-04
(PID.TID 0000.0001) %MON dynstat_eta_del2             =   3.8064131379346E-06
(PID.TID 0000.0001) %MON dynstat_uvel_max             =   2.8136903625695E-04
(PID.TID 0000.0001) %MON dynstat_uvel_min             =  -2.8624524569615E-04
(PID.TID 0000.0001) %MON dynstat_uvel_mean            =  -1.3502527510248E-06
(PID.TID 0000.0001) %MON dynstat_uvel_sd              =   5.7726591859530E-05
(PID.TID 0000.0001) %MON dynstat_uvel_del2            =   2.4441097966084E-06
(PID.TID 0000.0001) %MON dynstat_vvel_max             =   4.2252249441008E-03
(PID.TID 0000.0001) %MON dynstat_vvel_min             =  -4.2262496350383E-03
(PID.TID 0000.0001) %MON dynstat_vvel_mean            =  -4.7552984840392E-07
(PID.TID 0000.0001) %MON dynstat_vvel_sd              =   9.0908538509516E-04
(PID.TID 0000.0001) %MON dynstat_vvel_del2            =   3.1766242910327E-05
(PID.TID 0000.0001) %MON dynstat_wvel_max             =   7.6165748739910E-05
(PID.TID 0000.0001) %MON dynstat_wvel_min             =  -7.6315924303730E-05
(PID.TID 0000.0001) %MON dynstat_wvel_mean            =   7.8772341050364E-23
(PID.TID 0000.0001) %MON dynstat_wvel_sd              =   2.3902635303176E-05
(PID.TID 0000.0001) %MON dynstat_wvel_del2            =   1.9655134718497E-06
(PID.TID 0000.0001) %MON dynstat_theta_max            =   1.7020391872709E+01
(PID.TID 0000.0001) %MON dynstat_theta_min            =   1.6979608188987E+01
(PID.TID 0000.0001) %MON dynstat_theta_mean           =   1.6999999916205E+01
(PID.TID 0000.0001) %MON dynstat_theta_sd             =   1.8685282171640E-02
(PID.TID 0000.0001) %MON dynstat_theta_del2           =   1.8936634913407E-04
(PID.TID 0000.0001) %MON dynstat_salt_max             =   1.7020387109310E+01
(PID.TID 0000.0001) %MON dynstat_salt_min             =   1.6979612982854E+01
(PID.TID 0000.0001) %MON dynstat_salt_mean            =   1.7000000005831E+01
(PID.TID 0000.0001) %MON dynstat_salt_sd              =   1.8685329646070E-02
(PID.TID 0000.0001) %MON dynstat_salt_del2            =   1.8842849804787E-04
(PID.TID 0000.0001) %MON advcfl_uvel_max              =   3.4349429483538E-04
(PID.TID 0000.0001) %MON advcfl_vvel_max              =   5.0714995620459E-03
(PID.TID 0000.0001) %MON advcfl_wvel_max              =   1.8315821832895E-02
(PID.TID 0000.0001) %MON advcfl_W_hf_max              =   1.8315821832895E-02
(PID.TID 0000.0001) %MON pe_b_mean                    =   3.5593261952889E-09
(PID.TID 0000.0001) %MON ke_max                       =   8.9606181704412E-06
(PID.TID 0000.0001) %MON ke_mean                      =   3.9835659378578E-07
(PID.TID 0000.0001) %MON ke_vol                       =   2.5000000000000E+11
(PID.TID 0000.0001) %MON vort_r_min                   =  -9.6982968038562E-08
(PID.TID 0000.0001) %MON vort_r_max                   =   9.6945226081582E-08
(PID.TID 0000.0001) %MON vort_a_mean                  =   7.2900000000001E-05
(PID.TID 0000.0001) %MON vort_a_sd                    =   2.2814866068971E-08
(PID.TID 0000.0001) %MON vort_p_mean                  =   7.7363265306123E-05
(PID.TID 0000.0001) %MON vort_p_sd                    =   3.0922418046091E-05
(PID.TID 0000.0001) %MON surfExpan_theta_mean         =   2.3099127535095E-10
(PID.TID 0000.0001) %MON surfExpan_salt_mean          =  -6.7230231407936E-16
(PID.TID 0000.0001) // =======================================================
(PID.TID 0000.0001) // End MONITOR dynamic field statistics
(PID.TID 0000.0001) // =======================================================
 cg2d: Sum(rhs),rhsMax =  -7.57916949686854E-15  6.57146222319084E-04
(PID.TID 0000.0001)                    cg2d_init_res =    6.84820482751992E-02
(PID.TID 0000.0001)                       cg2d_iters =    72
(PID.TID 0000.0001)                         cg2d_res =    8.48795274165925E-12
(PID.TID 0000.0001) // =======================================================
(PID.TID 0000.0001) // Begin MONITOR dynamic field statistics
(PID.TID 0000.0001) // =======================================================
(PID.TID 0000.0001) %MON time_tsnumber                =                     3
(PID.TID 0000.0001) %MON time_secondsf                =   3.6000000000000E+03
(PID.TID 0000.0001) %MON dynstat_eta_max              =   4.0840820730811E-04
(PID.TID 0000.0001) %MON dynstat_eta_min              =  -4.0831313364407E-04
(PID.TID 0000.0001) %MON dynstat_eta_mean             =   1.5076801321290E-17
(PID.TID 0000.0001) %MON dynstat_eta_sd               =   3.7405939617963E-04
(PID.TID 0000.0001) %MON dynstat_eta_del2             =   3.7853328224402E-06
(PID.TID 0000.0001) %MON dynstat_uvel_max             =   7.3407972221185E-04
(PID.TID 0000.0001) %MON dynstat_uvel_min             =  -7.3750502716525E-04
(PID.TID 0000.0001) %MON dynstat_uvel_mean            =  -9.5497345539059E-07
(PID.TID 0000.0001) %MON dynstat_uvel_sd              =   1.5244882763763E-04
(PID.TID 0000.0001) %MON dynstat_uvel_del2            =   5.6937307061649E-06
(PID.TID 0000.0001) %MON dynstat_vvel_max             =   6.2368039898705E-03
(PID.TID 0000.0001) %MON dynstat_vvel_min             =  -6.2356039395958E-03
(PID.TID 0000.0001) %MON dynstat_vvel_mean            =   2.2081159807167E-07
(PID.TID 0000.0001) %MON dynstat_vvel_sd              =   1.3498571003064E-03
(PID.TID 0000.0001) %MON dynstat_vvel_del2            =   4.6379109385073E-05
(PID.TID 0000.0001) %MON dynstat_wvel_max             =   1.1122479006430E-04
(PID.TID 0000.0001) %MON dynstat_wvel_min             =  -1.1142858720493E-04
(PID.TID 0000.0001) %MON dynstat_wvel_mean            =  -1.5521894504070E-21
(PID.TID 0000.0001) %MON dynstat_wvel_sd              =   3.5224914614180E-05
(PID.TID 0000.0001) %MON dynstat_wvel_del2            =   2.8527233454788E-06
(PID.TID 0000.0001) %MON dynstat_theta_max            =   1.7020391872709E+01
(PID.TID 0000.0001) %MON dynstat_theta_min            =   1.6979608188987E+01
(PID.TID 0000.0001) %MON dynstat_theta_mean           =   1.6999999916850E+01
(PID.TID 0000.0001) %MON dynstat_theta_sd             =   1.8685241259467E-02
(PID.TID 0000.0001) %MON dynstat_theta_del2           =   1.8957775614615E-04
(PID.TID 0000.0001) %MON dynstat_salt_max             =   1.7020387109310E+01
(PID.TID 0000.0001) %MON dynstat_salt_min             =   1.6979612982854E+01
(PID.TID 0000.0001) %MON dynstat_salt_mean            =   1.7000000005831E+01
(PID.TID 0000.0001) %MON dynstat_salt_sd              =   1.8685328930362E-02
(PID.TID 0000.0001) %MON dynstat_salt_del2            =   1.8843214185539E-04
(PID.TID 0000.0001) %MON advcfl_uvel_max              =   8.8500603259830E-04
(PID.TID 0000.0001) %MON advcfl_vvel_max              =   7.4841647878446E-03
(PID.TID 0000.0001) %MON advcfl_wvel_max              =   2.6742860929184E-02
(PID.TID 0000.0001) %MON advcfl_W_hf_max              =   2.6742860929184E-02
(PID.TID 0000.0001) %MON pe_b_mean                    =   3.4315485916184E-09
(PID.TID 0000.0001) %MON ke_max                       =   1.9677636906483E-05
(PID.TID 0000.0001) %MON ke_mean                      =   8.8623561371381E-07
(PID.TID 0000.0001) %MON ke_vol                       =   2.5000000000000E+11
(PID.TID 0000.0001) %MON vort_r_min                   =  -2.4847764239510E-07
(PID.TID 0000.0001) %MON vort_r_max                   =   2.4872073687835E-07
(PID.TID 0000.0001) %MON vort_a_mean                  =   7.2899999999999E-05
(PID.TID 0000.0001) %MON vort_a_sd                    =   5.9402717242726E-08
(PID.TID 0000.0001) %MON vort_p_mean                  =   7.7363265306122E-05
(PID.TID 0000.0001) %MON vort_p_sd                    =   3.0922469671416E-05
(PID.TID 0000.0001) %MON surfExpan_theta_mean         =  -1.0737535453808E-10
(PID.TID 0000.0001) %MON surfExpan_salt_mean          =   2.8150646018405E-16
(PID.TID 0000.0001) // =======================================================
(PID.TID 0000.0001) // End MONITOR dynamic field statistics
(PID.TID 0000.0001) // =======================================================
 cg2d: Sum(rhs),rhsMax =  -4.43813280397165E-14  6.57172471506720E-04
(PID.TID 0000.0001)                    cg2d_init_res =    3.23454677847001E-02
(PID.TID 0000.0001)                       cg2d_iters =    73
(PID.TID 0000.0001)                         cg2d_res =    5.19453892778416E-12
(PID.TID 0000.0001) // =======================================================
(PID.TID 0000.0001) // Begin MONITOR dynamic field statistics
(PID.TID 0000.0001) // =======================================================
(PID.TID 0000.0001) %MON time_tsnumber                =                     4
(PID.TID 0000.0001) %MON time_secondsf                =   4.8000000000000E+03
(PID.TID 0000.0001) %MON dynstat_eta_max              =   4.0765805799642E-04
(PID.TID 0000.0001) %MON dynstat_eta_min              =  -4.0746305955638E-04
(PID.TID 0000.0001) %MON dynstat_eta_mean             =   1.1967392763990E-17
(PID.TID 0000.0001) %MON dynstat_eta_sd               =   3.7351515821466E-04
(PID.TID 0000.0001) %MON dynstat_eta_del2             =   3.7854665533514E-06
(PID.TID 0000.0001) %MON dynstat_uvel_max             =   1.3474492598414E-03
(PID.TID 0000.0001) %MON dynstat_uvel_min             =  -1.3507401915442E-03
(PID.TID 0000.0001) %MON dynstat_uvel_mean            =  -9.0623322345849E-07
(PID.TID 0000.0001) %MON dynstat_uvel_sd              =   2.8283551802701E-04
(PID.TID 0000.0001) %MON dynstat_uvel_del2            =   1.0019766389468E-05
(PID.TID 0000.0001) %MON dynstat_vvel_max             =   8.1689065906761E-03
(PID.TID 0000.0001) %MON dynstat_vvel_min             =  -8.1680916470188E-03
(PID.TID 0000.0001) %MON dynstat_vvel_mean            =   1.7638029680576E-08
(PID.TID 0000.0001) %MON dynstat_vvel_sd              =   1.7773270607617E-03
(PID.TID 0000.0001) %MON dynstat_vvel_del2            =   6.0262036305089E-05
(PID.TID 0000.0001) %MON dynstat_wvel_max             =   1.4437938945991E-04
(PID.TID 0000.0001) %MON dynstat_wvel_min             =  -1.4462790420164E-04
(PID.TID 0000.0001) %MON dynstat_wvel_mean            =   9.2111766060712E-22
(PID.TID 0000.0001) %MON dynstat_wvel_sd              =   4.6086009744836E-05
(PID.TID 0000.0001) %MON dynstat_wvel_del2            =   3.6843719130181E-06
(PID.TID 0000.0001) %MON dynstat_theta_max            =   1.7020391872709E+01
(PID.TID 0000.0001) %MON dynstat_theta_min            =   1.6979608188987E+01
(PID.TID 0000.0001) %MON dynstat_theta_mean           =   1.6999999916900E+01
(PID.TID 0000.0001) %MON dynstat_theta_sd             =   1.8685187251083E-02
(PID.TID 0000.0001) %MON dynstat_theta_del2           =   1.8985768877612E-04
(PID.TID 0000.0001) %MON dynstat_salt_max             =   1.7020387109310E+01
(PID.TID 0000.0001) %MON dynstat_salt_min             =   1.6979612982854E+01
(PID.TID 0000.0001) %MON dynstat_salt_mean            =   1.7000000005831E+01
(PID.TID 0000.0001) %MON dynstat_salt_sd              =   1.8685327599029E-02
(PID.TID 0000.0001) %MON dynstat_salt_del2            =   1.8843878914251E-04
(PID.TID 0000.0001) %MON advcfl_uvel_max              =   1.6208882298530E-03
(PID.TID 0000.0001) %MON advcfl_vvel_max              =   9.8026879088113E-03
(PID.TID 0000.0001) %MON advcfl_wvel_max              =   3.4710697008394E-02
(PID.TID 0000.0001) %MON advcfl_W_hf_max              =   3.4710697008394E-02
(PID.TID 0000.0001) %MON pe_b_mean                    =   3.4215703880304E-09
(PID.TID 0000.0001) %MON ke_max                       =   3.4175557936793E-05
(PID.TID 0000.0001) %MON ke_mean                      =   1.5562662867470E-06
(PID.TID 0000.0001) %MON ke_vol                       =   2.5000000000000E+11
(PID.TID 0000.0001) %MON vort_r_min                   =  -4.5075973589596E-07
(PID.TID 0000.0001) %MON vort_r_max                   =   4.5194648586465E-07
(PID.TID 0000.0001) %MON vort_a_mean                  =   7.2900000000000E-05
(PID.TID 0000.0001) %MON vort_a_sd                    =   1.0907862934290E-07
(PID.TID 0000.0001) %MON vort_p_mean                  =   7.7363265306123E-05
(PID.TID 0000.0001) %MON vort_p_sd                    =   3.0922613300991E-05
(PID.TID 0000.0001) %MON surfExpan_theta_mean         =  -8.4805074675579E-12
(PID.TID 0000.0001) %MON surfExpan_salt_mean          =  -5.5953458179493E-18
(PID.TID 0000.0001) // =======================================================
(PID.TID 0000.0001) // End MONITOR dynamic field statistics
(PID.TID 0000.0001) // =======================================================
 cg2d: Sum(rhs),rhsMax =   4.27211976732067E-14  6.57110010090059E-04
(PID.TID 0000.0001)                    cg2d_init_res =    3.67110307221612E-02
(PID.TID 0000.0001)                       cg2d_iters =    73
(PID.TID 0000.0001)                         cg2d_res =    7.32525814265641E-12
(PID.TID 0000.0001) // =======================================================
(PID.TID 0000.0001) // Begin MONITOR dynamic field statistics
(PID.TID 0000.0001) // =======================================================
(PID.TID 0000.0001) %MON time_tsnumber                =                     5
(PID.TID 0000.0001) %MON time_secondsf                =   6.0000000000000E+03
(PID.TID 0000.0001) %MON dynstat_eta_max              =   4.0788986859836E-04
(PID.TID 0000.0001) %MON dynstat_eta_min              =  -4.0757735262328E-04
(PID.TID 0000.0001) %MON dynstat_eta_mean             =   1.0570401076104E-17
(PID.TID 0000.0001) %MON dynstat_eta_sd               =   3.7363114899828E-04
(PID.TID 0000.0001) %MON dynstat_eta_del2             =   3.7875930311277E-06
(PID.TID 0000.0001) %MON dynstat_uvel_max             =   2.1124621436543E-03
(PID.TID 0000.0001) %MON dynstat_uvel_min             =  -2.1158063730525E-03
(PID.TID 0000.0001) %MON dynstat_uvel_mean            =  -9.1350868718103E-07
(PID.TID 0000.0001) %MON dynstat_uvel_sd              =   4.4746171348987E-04
(PID.TID 0000.0001) %MON dynstat_uvel_del2            =   1.5347919643794E-05
(PID.TID 0000.0001) %MON dynstat_vvel_max             =   1.0013855925251E-02
(PID.TID 0000.0001) %MON dynstat_vvel_min             =  -1.0012860331835E-02
(PID.TID 0000.0001) %MON dynstat_vvel_mean            =  -3.8021126824598E-09
(PID.TID 0000.0001) %MON dynstat_vvel_sd              =   2.1885996826972E-03
(PID.TID 0000.0001) %MON dynstat_vvel_del2            =   7.3629833471936E-05
(PID.TID 0000.0001) %MON dynstat_wvel_max             =   1.7658553290834E-04
(PID.TID 0000.0001) %MON dynstat_wvel_min             =  -1.7636191733607E-04
(PID.TID 0000.0001) %MON dynstat_wvel_mean            =   3.8123453993060E-22
(PID.TID 0000.0001) %MON dynstat_wvel_sd              =   5.6428538510600E-05
(PID.TID 0000.0001) %MON dynstat_wvel_del2            =   4.4604877560205E-06
(PID.TID 0000.0001) %MON dynstat_theta_max            =   1.7020391872709E+01
(PID.TID 0000.0001) %MON dynstat_theta_min            =   1.6979608188987E+01
(PID.TID 0000.0001) %MON dynstat_theta_mean           =   1.6999999916890E+01
(PID.TID 0000.0001) %MON dynstat_theta_sd             =   1.8685120463757E-02
(PID.TID 0000.0001) %MON dynstat_theta_del2           =   1.9019571250095E-04
(PID.TID 0000.0001) %MON dynstat_salt_max             =   1.7020387109310E+01
(PID.TID 0000.0001) %MON dynstat_salt_min             =   1.6979612982854E+01
(PID.TID 0000.0001) %MON dynstat_salt_mean            =   1.7000000005831E+01
(PID.TID 0000.0001) %MON dynstat_salt_sd              =   1.8685325485934E-02
(PID.TID 0000.0001) %MON dynstat_salt_del2            =   1.8844918209028E-04
(PID.TID 0000.0001) %MON advcfl_uvel_max              =   2.5389676476630E-03
(PID.TID 0000.0001) %MON advcfl_vvel_max              =   1.2016627110302E-02
(PID.TID 0000.0001) %MON advcfl_wvel_max              =   4.2380527898003E-02
(PID.TID 0000.0001) %MON advcfl_W_hf_max              =   4.2380527898003E-02
(PID.TID 0000.0001) %MON pe_b_mean                    =   3.4236957756810E-09
(PID.TID 0000.0001) %MON ke_max                       =   5.2164593996138E-05
(PID.TID 0000.0001) %MON ke_mean                      =   2.3992963239047E-06
(PID.TID 0000.0001) %MON ke_vol                       =   2.5000000000000E+11
(PID.TID 0000.0001) %MON vort_r_min                   =  -6.9918786579121E-07
(PID.TID 0000.0001) %MON vort_r_max                   =   7.0242153207820E-07
(PID.TID 0000.0001) %MON vort_a_mean                  =   7.2899999999999E-05
(PID.TID 0000.0001) %MON vort_a_sd                    =   1.7104310740718E-07
(PID.TID 0000.0001) %MON vort_p_mean                  =   7.7363265306122E-05
(PID.TID 0000.0001) %MON vort_p_sd                    =   3.0922911161534E-05
(PID.TID 0000.0001) %MON surfExpan_theta_mean         =   1.7949272251252E-12
(PID.TID 0000.0001) %MON surfExpan_salt_mean          =  -4.1237528130764E-17
(PID.TID 0000.0001) // =======================================================
(PID.TID 0000.0001) // End MONITOR dynamic field statistics
(PID.TID 0000.0001) // =======================================================
 cg2d: Sum(rhs),rhsMax =  -1.32219918607540E-13  6.56829764557867E-04
(PID.TID 0000.0001)                    cg2d_init_res =    3.82920727471966E-02
(PID.TID 0000.0001)                       cg2d_iters =    73
(PID.TID 0000.0001)                         cg2d_res =    9.61868632539803E-12
(PID.TID 0000.0001) // =======================================================
(PID.TID 0000.0001) // Begin MONITOR dynamic field statistics
(PID.TID 0000.0001) // =======================================================
(PID.TID 0000.0001) %MON time_tsnumber                =                     6
(PID.TID 0000.0001) %MON time_secondsf                =   7.2000000000000E+03
(PID.TID 0000.0001) %MON dynstat_eta_max              =   4.0797385677578E-04
(PID.TID 0000.0001) %MON dynstat_eta_min              =  -4.0753735669024E-04
(PID.TID 0000.0001) %MON dynstat_eta_mean             =   1.7904850510564E-17
(PID.TID 0000.0001) %MON dynstat_eta_sd               =   3.7364372841043E-04
(PID.TID 0000.0001) %MON dynstat_eta_del2             =   3.7892394224261E-06
(PID.TID 0000.0001) %MON dynstat_uvel_max             =   3.0189132297410E-03
(PID.TID 0000.0001) %MON dynstat_uvel_min             =  -3.0223035603049E-03
(PID.TID 0000.0001) %MON dynstat_uvel_mean            =  -9.1475559532450E-07
(PID.TID 0000.0001) %MON dynstat_uvel_sd              =   6.4464665686517E-04
(PID.TID 0000.0001) %MON dynstat_uvel_del2            =   2.1593053797448E-05
(PID.TID 0000.0001) %MON dynstat_vvel_max             =   1.1762558953263E-02
(PID.TID 0000.0001) %MON dynstat_vvel_min             =  -1.1761302265399E-02
(PID.TID 0000.0001) %MON dynstat_vvel_mean            =  -4.6428766823366E-10
(PID.TID 0000.0001) %MON dynstat_vvel_sd              =   2.5809192845254E-03
(PID.TID 0000.0001) %MON dynstat_vvel_del2            =   8.6437880333003E-05
(PID.TID 0000.0001) %MON dynstat_wvel_max             =   2.0743703267406E-04
(PID.TID 0000.0001) %MON dynstat_wvel_min             =  -2.0721952777674E-04
(PID.TID 0000.0001) %MON dynstat_wvel_mean            =  -1.2007447286766E-21
(PID.TID 0000.0001) %MON dynstat_wvel_sd              =   6.6203228192031E-05
(PID.TID 0000.0001) %MON dynstat_wvel_del2            =   5.1810992664733E-06
(PID.TID 0000.0001) %MON dynstat_theta_max            =   1.7020391872709E+01
(PID.TID 0000.0001) %MON dynstat_theta_min            =   1.6979608188987E+01
(PID.TID 0000.0001) %MON dynstat_theta_mean           =   1.6999999916889E+01
(PID.TID 0000.0001) %MON dynstat_theta_sd             =   1.8685041256579E-02
(PID.TID 0000.0001) %MON dynstat_theta_del2           =   1.9058301418058E-04
(PID.TID 0000.0001) %MON dynstat_salt_max             =   1.7020387109310E+01
(PID.TID 0000.0001) %MON dynstat_salt_min             =   1.6979612982854E+01
(PID.TID 0000.0001) %MON dynstat_salt_mean            =   1.7000000005831E+01
(PID.TID 0000.0001) %MON dynstat_salt_sd              =   1.8685322431422E-02
(PID.TID 0000.0001) %MON dynstat_salt_del2            =   1.8846400162207E-04
(PID.TID 0000.0001) %MON advcfl_uvel_max              =   3.6267642723659E-03
(PID.TID 0000.0001) %MON advcfl_vvel_max              =   1.4115070743915E-02
(PID.TID 0000.0001) %MON advcfl_wvel_max              =   4.9784887841775E-02
(PID.TID 0000.0001) %MON advcfl_W_hf_max              =   4.9784887841775E-02
(PID.TID 0000.0001) %MON pe_b_mean                    =   3.4239263175154E-09
(PID.TID 0000.0001) %MON ke_max                       =   7.3356114545384E-05
(PID.TID 0000.0001) %MON ke_mean                      =   3.4051343640455E-06
(PID.TID 0000.0001) %MON ke_vol                       =   2.5000000000000E+11
(PID.TID 0000.0001) %MON vort_r_min                   =  -9.8914291510574E-07
(PID.TID 0000.0001) %MON vort_r_max                   =   9.9577373003244E-07
(PID.TID 0000.0001) %MON vort_a_mean                  =   7.2900000000000E-05
(PID.TID 0000.0001) %MON vort_a_sd                    =   2.4443894670217E-07
(PID.TID 0000.0001) %MON vort_p_mean                  =   7.7363265306123E-05
(PID.TID 0000.0001) %MON vort_p_sd                    =   3.0923434439329E-05
(PID.TID 0000.0001) %MON surfExpan_theta_mean         =   1.7962030948681E-13
(PID.TID 0000.0001) %MON surfExpan_salt_mean          =  -3.7340093387064E-17
(PID.TID 0000.0001) // =======================================================
(PID.TID 0000.0001) // End MONITOR dynamic field statistics
(PID.TID 0000.0001) // =======================================================
 cg2d: Sum(rhs),rhsMax =  -6.77051730652023E-14  6.56212887479587E-04
(PID.TID 0000.0001)                    cg2d_init_res =    3.71792312095919E-02
(PID.TID 0000.0001)                       cg2d_iters =    74
(PID.TID 0000.0001)                         cg2d_res =    6.80349498729309E-12
(PID.TID 0000.0001) // =======================================================
(PID.TID 0000.0001) // Begin MONITOR dynamic field statistics
(PID.TID 0000.0001) // =======================================================
(PID.TID 0000.0001) %MON time_tsnumber                =                     7
(PID.TID 0000.0001) %MON time_secondsf                =   8.4000000000000E+03
(PID.TID 0000.0001) %MON dynstat_eta_max              =   4.0803004796570E-04
(PID.TID 0000.0001) %MON dynstat_eta_min              =  -4.0747584675465E-04
(PID.TID 0000.0001) %MON dynstat_eta_mean             =   2.2309595540948E-17
(PID.TID 0000.0001) %MON dynstat_eta_sd               =   3.7363857515651E-04
(PID.TID 0000.0001) %MON dynstat_eta_del2             =   3.7902354634232E-06
(PID.TID 0000.0001) %MON dynstat_uvel_max             =   4.0560583029528E-03
(PID.TID 0000.0001) %MON dynstat_uvel_min             =  -4.0593818280023E-03
(PID.TID 0000.0001) %MON dynstat_uvel_mean            =  -9.1465022011695E-07
(PID.TID 0000.0001) %MON dynstat_uvel_sd              =   8.7249939031453E-04
(PID.TID 0000.0001) %MON dynstat_uvel_del2            =   2.8664576006396E-05
(PID.TID 0000.0001) %MON dynstat_vvel_max             =   1.3406610690917E-02
(PID.TID 0000.0001) %MON dynstat_vvel_min             =  -1.3405099501128E-02
(PID.TID 0000.0001) %MON dynstat_vvel_mean            =   8.8072808395785E-11
(PID.TID 0000.0001) %MON dynstat_vvel_sd              =   2.9516979113819E-03
(PID.TID 0000.0001) %MON dynstat_vvel_del2            =   9.8527032537876E-05
(PID.TID 0000.0001) %MON dynstat_wvel_max             =   2.3641759310589E-04
(PID.TID 0000.0001) %MON dynstat_wvel_min             =  -2.3621228524484E-04
(PID.TID 0000.0001) %MON dynstat_wvel_mean            =   1.7691598638965E-21
(PID.TID 0000.0001) %MON dynstat_wvel_sd              =   7.5365013596319E-05
(PID.TID 0000.0001) %MON dynstat_wvel_del2            =   5.8465872361851E-06
(PID.TID 0000.0001) %MON dynstat_theta_max            =   1.7020391872709E+01
(PID.TID 0000.0001) %MON dynstat_theta_min            =   1.6979608188987E+01
(PID.TID 0000.0001) %MON dynstat_theta_mean           =   1.6999999916889E+01
(PID.TID 0000.0001) %MON dynstat_theta_sd             =   1.8684950035820E-02
(PID.TID 0000.0001) %MON dynstat_theta_del2           =   1.9101055060264E-04
(PID.TID 0000.0001) %MON dynstat_salt_max             =   1.7020387109310E+01
(PID.TID 0000.0001) %MON dynstat_salt_min             =   1.6979612982854E+01
(PID.TID 0000.0001) %MON dynstat_salt_mean            =   1.7000000005831E+01
(PID.TID 0000.0001) %MON dynstat_salt_sd              =   1.8685318283685E-02
(PID.TID 0000.0001) %MON dynstat_salt_del2            =   1.8848385104470E-04
(PID.TID 0000.0001) %MON advcfl_uvel_max              =   4.8712581936028E-03
(PID.TID 0000.0001) %MON advcfl_vvel_max              =   1.6087932829101E-02
(PID.TID 0000.0001) %MON advcfl_wvel_max              =   5.6740222345414E-02
(PID.TID 0000.0001) %MON advcfl_W_hf_max              =   5.6740222345414E-02
(PID.TID 0000.0001) %MON pe_b_mean                    =   3.4238318733234E-09
(PID.TID 0000.0001) %MON ke_max                       =   9.7457741145837E-05
(PID.TID 0000.0001) %MON ke_mean                      =   4.5626378801691E-06
(PID.TID 0000.0001) %MON ke_vol                       =   2.5000000000000E+11
(PID.TID 0000.0001) %MON vort_r_min                   =  -1.3160454723799E-06
(PID.TID 0000.0001) %MON vort_r_max                   =   1.3276474524675E-06
(PID.TID 0000.0001) %MON vort_a_mean                  =   7.2900000000000E-05
(PID.TID 0000.0001) %MON vort_a_sd                    =   3.2836874861384E-07
(PID.TID 0000.0001) %MON vort_p_mean                  =   7.7363265306123E-05
(PID.TID 0000.0001) %MON vort_p_sd                    =   3.0924259372607E-05
(PID.TID 0000.0001) %MON surfExpan_theta_mean         =  -1.0019485160707E-13
(PID.TID 0000.0001) %MON surfExpan_salt_mean          =  -3.3930926339519E-17
(PID.TID 0000.0001) // =======================================================
(PID.TID 0000.0001) // End MONITOR dynamic field statistics
(PID.TID 0000.0001) // =======================================================
 cg2d: Sum(rhs),rhsMax =  -1.64537166443685E-13  6.55128162980430E-04
(PID.TID 0000.0001)                    cg2d_init_res =    3.45542689487036E-02
(PID.TID 0000.0001)                       cg2d_iters =    74
(PID.TID 0000.0001)                         cg2d_res =    8.11953443174997E-12
(PID.TID 0000.0001) // =======================================================
(PID.TID 0000.0001) // Begin MONITOR dynamic field statistics
(PID.TID 0000.0001) // =======================================================
(PID.TID 0000.0001) %MON time_tsnumber                =                     8
(PID.TID 0000.0001) %MON time_secondsf                =   9.6000000000000E+03
(PID.TID 0000.0001) %MON dynstat_eta_max              =   4.0807833327393E-04
(PID.TID 0000.0001) %MON dynstat_eta_min              =  -4.0742651276595E-04
(PID.TID 0000.0001) %MON dynstat_eta_mean             =   2.9242800610452E-17
(PID.TID 0000.0001) %MON dynstat_eta_sd               =   3.7363357228740E-04
(PID.TID 0000.0001) %MON dynstat_eta_del2             =   3.7902735116757E-06
(PID.TID 0000.0001) %MON dynstat_uvel_max             =   5.2125087658998E-03
(PID.TID 0000.0001) %MON dynstat_uvel_min             =  -5.2157000002995E-03
(PID.TID 0000.0001) %MON dynstat_uvel_mean            =  -9.1461825125479E-07
(PID.TID 0000.0001) %MON dynstat_uvel_sd              =   1.1289337477568E-03
(PID.TID 0000.0001) %MON dynstat_uvel_del2            =   3.6482708719829E-05
(PID.TID 0000.0001) %MON dynstat_vvel_max             =   1.4938237753754E-02
(PID.TID 0000.0001) %MON dynstat_vvel_min             =  -1.4936474639823E-02
(PID.TID 0000.0001) %MON dynstat_vvel_mean            =   5.3019154448867E-11
(PID.TID 0000.0001) %MON dynstat_vvel_sd              =   3.2985309108188E-03
(PID.TID 0000.0001) %MON dynstat_vvel_del2            =   1.0981024965740E-04
(PID.TID 0000.0001) %MON dynstat_wvel_max             =   2.6339406685271E-04
(PID.TID 0000.0001) %MON dynstat_wvel_min             =  -2.6320496883217E-04
(PID.TID 0000.0001) %MON dynstat_wvel_mean            =   2.3620758342509E-21
(PID.TID 0000.0001) %MON dynstat_wvel_sd              =   8.3873520426983E-05
(PID.TID 0000.0001) %MON dynstat_wvel_del2            =   6.4572941079400E-06
(PID.TID 0000.0001) %MON dynstat_theta_max            =   1.7020391872709E+01
(PID.TID 0000.0001) %MON dynstat_theta_min            =   1.6979608188987E+01
(PID.TID 0000.0001) %MON dynstat_theta_mean           =   1.6999999916890E+01
(PID.TID 0000.0001) %MON dynstat_theta_sd             =   1.8684847260082E-02
(PID.TID 0000.0001) %MON dynstat_theta_del2           =   1.9146924739513E-04
(PID.TID 0000.0001) %MON dynstat_salt_max             =   1.7020387109310E+01
(PID.TID 0000.0001) %MON dynstat_salt_min             =   1.6979612982854E+01
(PID.TID 0000.0001) %MON dynstat_salt_mean            =   1.7000000005831E+01
(PID.TID 0000.0001) %MON dynstat_salt_sd              =   1.8685312900092E-02
(PID.TID 0000.0001) %MON dynstat_salt_del2            =   1.8850927741199E-04
(PID.TID 0000.0001) %MON advcfl_uvel_max              =   6.2588400003594E-03
(PID.TID 0000.0001) %MON advcfl_vvel_max              =   1.7925885304505E-02
(PID.TID 0000.0001) %MON advcfl_wvel_max              =   6.3214576044650E-02
(PID.TID 0000.0001) %MON advcfl_W_hf_max              =   6.3214576044650E-02
(PID.TID 0000.0001) %MON pe_b_mean                    =   3.4237401864944E-09
(PID.TID 0000.0001) %MON ke_max                       =   1.2417061247783E-04
(PID.TID 0000.0001) %MON ke_mean                      =   5.8597930830962E-06
(PID.TID 0000.0001) %MON ke_vol                       =   2.5000000000000E+11
(PID.TID 0000.0001) %MON vort_r_min                   =  -1.6753666138867E-06
(PID.TID 0000.0001) %MON vort_r_max                   =   1.6936490555654E-06
(PID.TID 0000.0001) %MON vort_a_mean                  =   7.2900000000000E-05
(PID.TID 0000.0001) %MON vort_a_sd                    =   4.2190010049614E-07
(PID.TID 0000.0001) %MON vort_p_mean                  =   7.7363265306122E-05
(PID.TID 0000.0001) %MON vort_p_sd                    =   3.0925463438253E-05
(PID.TID 0000.0001) %MON surfExpan_theta_mean         =  -9.8213699355914E-14
(PID.TID 0000.0001) %MON surfExpan_salt_mean          =  -2.8171502254564E-17
(PID.TID 0000.0001) // =======================================================
(PID.TID 0000.0001) // End MONITOR dynamic field statistics
(PID.TID 0000.0001) // =======================================================
 cg2d: Sum(rhs),rhsMax =  -2.78826603732768E-13  6.53439314479621E-04
(PID.TID 0000.0001)                    cg2d_init_res =    3.31557266936816E-02
(PID.TID 0000.0001)                       cg2d_iters =    74
(PID.TID 0000.0001)                         cg2d_res =    9.44258099937118E-12
(PID.TID 0000.0001) // =======================================================
(PID.TID 0000.0001) // Begin MONITOR dynamic field statistics
(PID.TID 0000.0001) // =======================================================
(PID.TID 0000.0001) %MON time_tsnumber                =                     9
(PID.TID 0000.0001) %MON time_secondsf                =   1.0800000000000E+04
(PID.TID 0000.0001) %MON dynstat_eta_max              =   4.0810997101446E-04
(PID.TID 0000.0001) %MON dynstat_eta_min              =  -4.0739495286187E-04
(PID.TID 0000.0001) %MON dynstat_eta_mean             =   2.6636081620901E-17
(PID.TID 0000.0001) %MON dynstat_eta_sd               =   3.7362734582535E-04
(PID.TID 0000.0001) %MON dynstat_eta_del2             =   3.7890178570596E-06
(PID.TID 0000.0001) %MON dynstat_uvel_max             =   6.4763287517556E-03
(PID.TID 0000.0001) %MON dynstat_uvel_min             =  -6.4794928835409E-03
(PID.TID 0000.0001) %MON dynstat_uvel_mean            =  -9.1461468888197E-07
(PID.TID 0000.0001) %MON dynstat_uvel_sd              =   1.4116843723788E-03
(PID.TID 0000.0001) %MON dynstat_uvel_del2            =   4.4956074244595E-05
(PID.TID 0000.0001) %MON dynstat_vvel_max             =   1.6350337416873E-02
(PID.TID 0000.0001) %MON dynstat_vvel_min             =  -1.6348324863368E-02
(PID.TID 0000.0001) %MON dynstat_vvel_mean            =   5.5138742267018E-11
(PID.TID 0000.0001) %MON dynstat_vvel_sd              =   3.6192127428693E-03
(PID.TID 0000.0001) %MON dynstat_vvel_del2            =   1.2023310301911E-04
(PID.TID 0000.0001) %MON dynstat_wvel_max             =   2.8825210430999E-04
(PID.TID 0000.0001) %MON dynstat_wvel_min             =  -2.8808167501375E-04
(PID.TID 0000.0001) %MON dynstat_wvel_mean            =  -3.0405817485124E-22
(PID.TID 0000.0001) %MON dynstat_wvel_sd              =   9.1693343503031E-05
(PID.TID 0000.0001) %MON dynstat_wvel_del2            =   7.0134628784112E-06
(PID.TID 0000.0001) %MON dynstat_theta_max            =   1.7020391872709E+01
(PID.TID 0000.0001) %MON dynstat_theta_min            =   1.6979608188987E+01
(PID.TID 0000.0001) %MON dynstat_theta_mean           =   1.6999999916890E+01
(PID.TID 0000.0001) %MON dynstat_theta_sd             =   1.8684733444959E-02
(PID.TID 0000.0001) %MON dynstat_theta_del2           =   1.9195006149445E-04
(PID.TID 0000.0001) %MON dynstat_salt_max             =   1.7020387109310E+01
(PID.TID 0000.0001) %MON dynstat_salt_min             =   1.6979612982854E+01
(PID.TID 0000.0001) %MON dynstat_salt_mean            =   1.7000000005831E+01
(PID.TID 0000.0001) %MON dynstat_salt_sd              =   1.8685306148295E-02
(PID.TID 0000.0001) %MON dynstat_salt_del2            =   1.8854072808440E-04
(PID.TID 0000.0001) %MON advcfl_uvel_max              =   7.7753914602490E-03
(PID.TID 0000.0001) %MON advcfl_vvel_max              =   1.9620404900247E-02
(PID.TID 0000.0001) %MON advcfl_wvel_max              =   6.9180505034398E-02
(PID.TID 0000.0001) %MON advcfl_W_hf_max              =   6.9180505034398E-02
(PID.TID 0000.0001) %MON pe_b_mean                    =   3.4236260767769E-09
(PID.TID 0000.0001) %MON ke_max                       =   1.5318901868265E-04
(PID.TID 0000.0001) %MON ke_mean                      =   7.2838032233799E-06
(PID.TID 0000.0001) %MON ke_vol                       =   2.5000000000000E+11
(PID.TID 0000.0001) %MON vort_r_min                   =  -2.0626428870102E-06
(PID.TID 0000.0001) %MON vort_r_max                   =   2.0893416563955E-06
(PID.TID 0000.0001) %MON vort_a_mean                  =   7.2900000000000E-05
(PID.TID 0000.0001) %MON vort_a_sd                    =   5.2407109177753E-07
(PID.TID 0000.0001) %MON vort_p_mean                  =   7.7363265306122E-05
(PID.TID 0000.0001) %MON vort_p_sd                    =   3.0927121722671E-05
(PID.TID 0000.0001) %MON surfExpan_theta_mean         =  -1.1205456070521E-13
(PID.TID 0000.0001) %MON surfExpan_salt_mean          =  -1.9258567969841E-17
(PID.TID 0000.0001) // =======================================================
(PID.TID 0000.0001) // End MONITOR dynamic field statistics
(PID.TID 0000.0001) // =======================================================
 cg2d: Sum(rhs),rhsMax =  -1.45192126550786E-13  6.51011577504354E-04
(PID.TID 0000.0001)                    cg2d_init_res =    3.71605254085826E-02
(PID.TID 0000.0001)                       cg2d_iters =    75
(PID.TID 0000.0001)                         cg2d_res =    7.25650500962878E-12
(PID.TID 0000.0001) // =======================================================
(PID.TID 0000.0001) // Begin MONITOR dynamic field statistics
(PID.TID 0000.0001) // =======================================================
(PID.TID 0000.0001) %MON time_tsnumber                =                    10
(PID.TID 0000.0001) %MON time_secondsf                =   1.2000000000000E+04
(PID.TID 0000.0001) %MON dynstat_eta_max              =   4.0811719393169E-04
(PID.TID 0000.0001) %MON dynstat_eta_min              =  -4.0738776382433E-04
(PID.TID 0000.0001) %MON dynstat_eta_mean             =   1.8954785844794E-17
(PID.TID 0000.0001) %MON dynstat_eta_sd               =   3.7361919048609E-04
(PID.TID 0000.0001) %MON dynstat_eta_del2             =   3.7861551094062E-06
(PID.TID 0000.0001) %MON dynstat_uvel_max             =   7.8352492565137E-03
(PID.TID 0000.0001) %MON dynstat_uvel_min             =  -7.8384454565670E-03
(PID.TID 0000.0001) %MON dynstat_uvel_mean            =  -9.1460968611093E-07
(PID.TID 0000.0001) %MON dynstat_uvel_sd              =   1.7183240628254E-03
(PID.TID 0000.0001) %MON dynstat_uvel_del2            =   5.3990026553905E-05
(PID.TID 0000.0001) %MON dynstat_vvel_max             =   1.7636553155295E-02
(PID.TID 0000.0001) %MON dynstat_vvel_min             =  -1.7634294932773E-02
(PID.TID 0000.0001) %MON dynstat_vvel_mean            =   7.2750983746010E-11
(PID.TID 0000.0001) %MON dynstat_vvel_sd              =   3.9117514118838E-03
(PID.TID 0000.0001) %MON dynstat_vvel_del2            =   1.2975602599515E-04
(PID.TID 0000.0001) %MON dynstat_wvel_max             =   3.1089615973857E-04
(PID.TID 0000.0001) %MON dynstat_wvel_min             =  -3.1074570745128E-04
(PID.TID 0000.0001) %MON dynstat_wvel_mean            =  -3.1998569108494E-21
(PID.TID 0000.0001) %MON dynstat_wvel_sd              =   9.8794225749538E-05
(PID.TID 0000.0001) %MON dynstat_wvel_del2            =   7.5154174941605E-06
(PID.TID 0000.0001) %MON dynstat_theta_max            =   1.7020391872709E+01
(PID.TID 0000.0001) %MON dynstat_theta_min            =   1.6979608188987E+01
(PID.TID 0000.0001) %MON dynstat_theta_mean           =   1.6999999916891E+01
(PID.TID 0000.0001) %MON dynstat_theta_sd             =   1.8684609166951E-02
(PID.TID 0000.0001) %MON dynstat_theta_del2           =   1.9244366724372E-04
(PID.TID 0000.0001) %MON dynstat_salt_max             =   1.7020387109310E+01
(PID.TID 0000.0001) %MON dynstat_salt_min             =   1.6979612982854E+01
(PID.TID 0000.0001) %MON dynstat_salt_mean            =   1.7000000005831E+01
(PID.TID 0000.0001) %MON dynstat_salt_sd              =   1.8685297907225E-02
(PID.TID 0000.0001) %MON dynstat_salt_del2            =   1.8857855217792E-04
(PID.TID 0000.0001) %MON advcfl_uvel_max              =   9.4061345478804E-03
(PID.TID 0000.0001) %MON advcfl_vvel_max              =   2.1163863786354E-02
(PID.TID 0000.0001) %MON advcfl_wvel_max              =   7.4615078337256E-02
(PID.TID 0000.0001) %MON advcfl_W_hf_max              =   7.4615078337256E-02
(PID.TID 0000.0001) %MON pe_b_mean                    =   3.4234766202248E-09
(PID.TID 0000.0001) %MON ke_max                       =   1.8420027555943E-04
(PID.TID 0000.0001) %MON ke_mean                      =   8.8211827827180E-06
(PID.TID 0000.0001) %MON ke_vol                       =   2.5000000000000E+11
(PID.TID 0000.0001) %MON vort_r_min                   =  -2.4734917908032E-06
(PID.TID 0000.0001) %MON vort_r_max                   =   2.5102559079925E-06
(PID.TID 0000.0001) %MON vort_a_mean                  =   7.2900000000000E-05
(PID.TID 0000.0001) %MON vort_a_sd                    =   6.3389595992295E-07
(PID.TID 0000.0001) %MON vort_p_mean                  =   7.7363265306122E-05
(PID.TID 0000.0001) %MON vort_p_sd                    =   3.0929303556346E-05
(PID.TID 0000.0001) %MON surfExpan_theta_mean         =  -1.2908253295848E-13
(PID.TID 0000.0001) %MON surfExpan_salt_mean          =  -7.5594575525983E-18
(PID.TID 0000.0001) // =======================================================
(PID.TID 0000.0001) // End MONITOR dynamic field statistics
(PID.TID 0000.0001) // =======================================================
 cg2d: Sum(rhs),rhsMax =  -2.35524002644566E-13  6.47717440757124E-04
(PID.TID 0000.0001)                    cg2d_init_res =    4.88178445271008E-02
(PID.TID 0000.0001)                       cg2d_iters =    75
(PID.TID 0000.0001)                         cg2d_res =    8.03934875814676E-12
(PID.TID 0000.0001) // =======================================================
(PID.TID 0000.0001) // Begin MONITOR dynamic field statistics
(PID.TID 0000.0001) // =======================================================
(PID.TID 0000.0001) %MON time_tsnumber                =                    11
(PID.TID 0000.0001) %MON time_secondsf                =   1.3200000000000E+04
(PID.TID 0000.0001) %MON dynstat_eta_max              =   4.0809307555416E-04
(PID.TID 0000.0001) %MON dynstat_eta_min              =  -4.0741189368885E-04
(PID.TID 0000.0001) %MON dynstat_eta_mean             =   1.9795340253648E-17
(PID.TID 0000.0001) %MON dynstat_eta_sd               =   3.7360883600265E-04
(PID.TID 0000.0001) %MON dynstat_eta_del2             =   3.7814041171647E-06
(PID.TID 0000.0001) %MON dynstat_uvel_max             =   9.2766618970813E-03
(PID.TID 0000.0001) %MON dynstat_uvel_min             =  -9.2799341841536E-03
(PID.TID 0000.0001) %MON dynstat_uvel_mean            =  -9.1460323256003E-07
(PID.TID 0000.0001) %MON dynstat_uvel_sd              =   2.0462822473153E-03
(PID.TID 0000.0001) %MON dynstat_uvel_del2            =   6.3494266290083E-05
(PID.TID 0000.0001) %MON dynstat_vvel_max             =   1.8791339576774E-02
(PID.TID 0000.0001) %MON dynstat_vvel_min             =  -1.8788840336419E-02
(PID.TID 0000.0001) %MON dynstat_vvel_mean            =   9.2625909812362E-11
(PID.TID 0000.0001) %MON dynstat_vvel_sd              =   4.1743813828372E-03
(PID.TID 0000.0001) %MON dynstat_vvel_del2            =   1.3834813880610E-04
(PID.TID 0000.0001) %MON dynstat_wvel_max             =   3.3124940001765E-04
(PID.TID 0000.0001) %MON dynstat_wvel_min             =  -3.3111938826397E-04
(PID.TID 0000.0001) %MON dynstat_wvel_mean            =  -2.1328304337593E-21
(PID.TID 0000.0001) %MON dynstat_wvel_sd              =   1.0515121603879E-04
(PID.TID 0000.0001) %MON dynstat_wvel_del2            =   7.9638417161463E-06
(PID.TID 0000.0001) %MON dynstat_theta_max            =   1.7020391872709E+01
(PID.TID 0000.0001) %MON dynstat_theta_min            =   1.6979608188987E+01
(PID.TID 0000.0001) %MON dynstat_theta_mean           =   1.6999999916892E+01
(PID.TID 0000.0001) %MON dynstat_theta_sd             =   1.8684475066427E-02
(PID.TID 0000.0001) %MON dynstat_theta_del2           =   1.9294096987962E-04
(PID.TID 0000.0001) %MON dynstat_salt_max             =   1.7020387109310E+01
(PID.TID 0000.0001) %MON dynstat_salt_min             =   1.6979612982854E+01
(PID.TID 0000.0001) %MON dynstat_salt_mean            =   1.7000000005831E+01
(PID.TID 0000.0001) %MON dynstat_salt_sd              =   1.8685288068031E-02
(PID.TID 0000.0001) %MON dynstat_salt_del2            =   1.8862300886495E-04
(PID.TID 0000.0001) %MON advcfl_uvel_max              =   1.1135921020984E-02
(PID.TID 0000.0001) %MON advcfl_vvel_max              =   2.2549607492129E-02
(PID.TID 0000.0001) %MON advcfl_wvel_max              =   7.9499856004236E-02
(PID.TID 0000.0001) %MON advcfl_W_hf_max              =   7.9499856004236E-02
(PID.TID 0000.0001) %MON pe_b_mean                    =   3.4232868663702E-09
(PID.TID 0000.0001) %MON ke_max                       =   2.1688517744894E-04
(PID.TID 0000.0001) %MON ke_mean                      =   1.0457856702190E-05
(PID.TID 0000.0001) %MON ke_vol                       =   2.5000000000000E+11
(PID.TID 0000.0001) %MON vort_r_min                   =  -2.9036276500325E-06
(PID.TID 0000.0001) %MON vort_r_max                   =   2.9519080610553E-06
(PID.TID 0000.0001) %MON vort_a_mean                  =   7.2899999999999E-05
(PID.TID 0000.0001) %MON vort_a_sd                    =   7.5037081189816E-07
(PID.TID 0000.0001) %MON vort_p_mean                  =   7.7363265306122E-05
(PID.TID 0000.0001) %MON vort_p_sd                    =   3.0932069482614E-05
(PID.TID 0000.0001) %MON surfExpan_theta_mean         =  -1.4056836197705E-13
(PID.TID 0000.0001) %MON surfExpan_salt_mean          =   6.3942857560204E-18
(PID.TID 0000.0001) // =======================================================
(PID.TID 0000.0001) // End MONITOR dynamic field statistics
(PID.TID 0000.0001) // =======================================================
 cg2d: Sum(rhs),rhsMax =   2.36348484186633E-14  6.43441966723073E-04
(PID.TID 0000.0001)                    cg2d_init_res =    6.69564911270571E-02
(PID.TID 0000.0001)                       cg2d_iters =    75
(PID.TID 0000.0001)                         cg2d_res =    8.86884718319717E-12
(PID.TID 0000.0001) // =======================================================
(PID.TID 0000.0001) // Begin MONITOR dynamic field statistics
(PID.TID 0000.0001) // =======================================================
(PID.TID 0000.0001) %MON time_tsnumber                =                    12
(PID.TID 0000.0001) %MON time_secondsf                =   1.4400000000000E+04
(PID.TID 0000.0001) %MON dynstat_eta_max              =   4.0803118395653E-04
(PID.TID 0000.0001) %MON dynstat_eta_min              =  -4.0747379864752E-04
(PID.TID 0000.0001) %MON dynstat_eta_mean             =   1.5585370138904E-17
(PID.TID 0000.0001) %MON dynstat_eta_sd               =   3.7359607691985E-04
(PID.TID 0000.0001) %MON dynstat_eta_del2             =   3.7745243936776E-06
(PID.TID 0000.0001) %MON dynstat_uvel_max             =   1.0787741933441E-02
(PID.TID 0000.0001) %MON dynstat_uvel_min             =  -1.0791051155912E-02
(PID.TID 0000.0001) %MON dynstat_uvel_mean            =  -9.1459617357867E-07
(PID.TID 0000.0001) %MON dynstat_uvel_sd              =   2.3928644442760E-03
(PID.TID 0000.0001) %MON dynstat_uvel_del2            =   7.3377060141818E-05
(PID.TID 0000.0001) %MON dynstat_vvel_max             =   1.9810017215437E-02
(PID.TID 0000.0001) %MON dynstat_vvel_min             =  -1.9807335436463E-02
(PID.TID 0000.0001) %MON dynstat_vvel_mean            =   1.1452423628072E-10
(PID.TID 0000.0001) %MON dynstat_vvel_sd              =   4.4055748920345E-03
(PID.TID 0000.0001) %MON dynstat_vvel_del2            =   1.4598676213683E-04
(PID.TID 0000.0001) %MON dynstat_wvel_max             =   3.4925352307526E-04
(PID.TID 0000.0001) %MON dynstat_wvel_min             =  -3.4914379287584E-04
(PID.TID 0000.0001) %MON dynstat_wvel_mean            =   1.7355147514496E-21
(PID.TID 0000.0001) %MON dynstat_wvel_sd              =   1.1074480176989E-04
(PID.TID 0000.0001) %MON dynstat_wvel_del2            =   8.3595417418880E-06
(PID.TID 0000.0001) %MON dynstat_theta_max            =   1.7020391872709E+01
(PID.TID 0000.0001) %MON dynstat_theta_min            =   1.6979608188987E+01
(PID.TID 0000.0001) %MON dynstat_theta_mean           =   1.6999999916893E+01
(PID.TID 0000.0001) %MON dynstat_theta_sd             =   1.8684331849408E-02
(PID.TID 0000.0001) %MON dynstat_theta_del2           =   1.9343306645378E-04
(PID.TID 0000.0001) %MON dynstat_salt_max             =   1.7020387109310E+01
(PID.TID 0000.0001) %MON dynstat_salt_min             =   1.6979612982854E+01
(PID.TID 0000.0001) %MON dynstat_salt_mean            =   1.7000000005831E+01
(PID.TID 0000.0001) %MON dynstat_salt_sd              =   1.8685276534846E-02
(PID.TID 0000.0001) %MON dynstat_salt_del2            =   1.8867425933830E-04
(PID.TID 0000.0001) %MON advcfl_uvel_max              =   1.2949261387094E-02
(PID.TID 0000.0001) %MON advcfl_vvel_max              =   2.3772020658524E-02
(PID.TID 0000.0001) %MON advcfl_wvel_max              =   8.3820845538063E-02
(PID.TID 0000.0001) %MON advcfl_W_hf_max              =   8.3820845538063E-02
(PID.TID 0000.0001) %MON pe_b_mean                    =   3.4230530536199E-09
(PID.TID 0000.0001) %MON ke_max                       =   2.5091901670481E-04
(PID.TID 0000.0001) %MON ke_mean                      =   1.2179263804659E-05
(PID.TID 0000.0001) %MON ke_vol                       =   2.5000000000000E+11
(PID.TID 0000.0001) %MON vort_r_min                   =  -3.3488779106356E-06
(PID.TID 0000.0001) %MON vort_r_max                   =   3.4098243627215E-06
(PID.TID 0000.0001) %MON vort_a_mean                  =   7.2900000000001E-05
(PID.TID 0000.0001) %MON vort_a_sd                    =   8.7247939012283E-07
(PID.TID 0000.0001) %MON vort_p_mean                  =   7.7363265306123E-05
(PID.TID 0000.0001) %MON vort_p_sd                    =   3.0935468621238E-05
(PID.TID 0000.0001) %MON surfExpan_theta_mean         =  -1.4405703866361E-13
(PID.TID 0000.0001) %MON surfExpan_salt_mean          =   2.2369802222764E-17
(PID.TID 0000.0001) // =======================================================
(PID.TID 0000.0001) // End MONITOR dynamic field statistics
(PID.TID 0000.0001) // =======================================================
 cg2d: Sum(rhs),rhsMax =  -2.00541189557257E-13  6.38087731030689E-04
(PID.TID 0000.0001)                    cg2d_init_res =    8.97709968241772E-02
(PID.TID 0000.0001)                       cg2d_iters =    75
(PID.TID 0000.0001)                         cg2d_res =    9.79757180719367E-12
(PID.TID 0000.0001) // =======================================================
(PID.TID 0000.0001) // Begin MONITOR dynamic field statistics
(PID.TID 0000.0001) // =======================================================
(PID.TID 0000.0001) %MON time_tsnumber                =                    13
(PID.TID 0000.0001) %MON time_secondsf                =   1.5600000000000E+04
(PID.TID 0000.0001) %MON dynstat_eta_max              =   4.0792580100774E-04
(PID.TID 0000.0001) %MON dynstat_eta_min              =  -4.0757919748817E-04
(PID.TID 0000.0001) %MON dynstat_eta_mean             =   1.2302554689980E-17
(PID.TID 0000.0001) %MON dynstat_eta_sd               =   3.7358079728449E-04
(PID.TID 0000.0001) %MON dynstat_eta_del2             =   3.7653238804162E-06
(PID.TID 0000.0001) %MON dynstat_uvel_max             =   1.2355431622613E-02
(PID.TID 0000.0001) %MON dynstat_uvel_min             =  -1.2358805309868E-02
(PID.TID 0000.0001) %MON dynstat_uvel_mean            =  -9.1458890351521E-07
(PID.TID 0000.0001) %MON dynstat_uvel_sd              =   2.7552725611285E-03
(PID.TID 0000.0001) %MON dynstat_uvel_del2            =   8.3548968271588E-05
(PID.TID 0000.0001) %MON dynstat_vvel_max             =   2.0688818355303E-02
(PID.TID 0000.0001) %MON dynstat_vvel_min             =  -2.0686067776194E-02
(PID.TID 0000.0001) %MON dynstat_vvel_mean            =   1.3839813461491E-10
(PID.TID 0000.0001) %MON dynstat_vvel_sd              =   4.6040515772866E-03
(PID.TID 0000.0001) %MON dynstat_vvel_del2            =   1.5265608558352E-04
(PID.TID 0000.0001) %MON dynstat_wvel_max             =   3.6486848000996E-04
(PID.TID 0000.0001) %MON dynstat_wvel_min             =  -3.6477840880238E-04
(PID.TID 0000.0001) %MON dynstat_wvel_mean            =  -4.6392477030644E-21
(PID.TID 0000.0001) %MON dynstat_wvel_sd              =   1.1556101004940E-04
(PID.TID 0000.0001) %MON dynstat_wvel_del2            =   8.7033800134114E-06
(PID.TID 0000.0001) %MON dynstat_theta_max            =   1.7020391872709E+01
(PID.TID 0000.0001) %MON dynstat_theta_min            =   1.6979608188987E+01
(PID.TID 0000.0001) %MON dynstat_theta_mean           =   1.6999999916894E+01
(PID.TID 0000.0001) %MON dynstat_theta_sd             =   1.8684180288011E-02
(PID.TID 0000.0001) %MON dynstat_theta_del2           =   1.9391169414666E-04
(PID.TID 0000.0001) %MON dynstat_salt_max             =   1.7020387109310E+01
(PID.TID 0000.0001) %MON dynstat_salt_min             =   1.6979612982853E+01
(PID.TID 0000.0001) %MON dynstat_salt_mean            =   1.7000000005831E+01
(PID.TID 0000.0001) %MON dynstat_salt_sd              =   1.8685263225500E-02
(PID.TID 0000.0001) %MON dynstat_salt_del2            =   1.8873234768914E-04
(PID.TID 0000.0001) %MON advcfl_uvel_max              =   1.4830566371841E-02
(PID.TID 0000.0001) %MON advcfl_vvel_max              =   2.4826582026363E-02
(PID.TID 0000.0001) %MON advcfl_wvel_max              =   8.7568435202390E-02
(PID.TID 0000.0001) %MON advcfl_W_hf_max              =   8.7568435202390E-02
(PID.TID 0000.0001) %MON pe_b_mean                    =   3.4227730617454E-09
(PID.TID 0000.0001) %MON ke_max                       =   2.8597312756076E-04
(PID.TID 0000.0001) %MON ke_mean                      =   1.3970463505922E-05
(PID.TID 0000.0001) %MON ke_vol                       =   2.5000000000000E+11
(PID.TID 0000.0001) %MON vort_r_min                   =  -3.8051997161949E-06
(PID.TID 0000.0001) %MON vort_r_max                   =   3.8795707442481E-06
(PID.TID 0000.0001) %MON vort_a_mean                  =   7.2900000000001E-05
(PID.TID 0000.0001) %MON vort_a_sd                    =   9.9919885934138E-07
(PID.TID 0000.0001) %MON vort_p_mean                  =   7.7363265306123E-05
(PID.TID 0000.0001) %MON vort_p_sd                    =   3.0939536476592E-05
(PID.TID 0000.0001) %MON surfExpan_theta_mean         =  -1.3742170268056E-13
(PID.TID 0000.0001) %MON surfExpan_salt_mean          =   3.9399299186279E-17
(PID.TID 0000.0001) // =======================================================
(PID.TID 0000.0001) // End MONITOR dynamic field statistics
(PID.TID 0000.0001) // =======================================================
 cg2d: Sum(rhs),rhsMax =  -9.58427131061979E-14  6.34682196426896E-04
(PID.TID 0000.0001)                    cg2d_init_res =    1.15438404533371E-01
(PID.TID 0000.0001)                       cg2d_iters =    76
(PID.TID 0000.0001)                         cg2d_res =    7.47897127162127E-12
(PID.TID 0000.0001) // =======================================================
(PID.TID 0000.0001) // Begin MONITOR dynamic field statistics
(PID.TID 0000.0001) // =======================================================
(PID.TID 0000.0001) %MON time_tsnumber                =                    14
(PID.TID 0000.0001) %MON time_secondsf                =   1.6800000000000E+04
(PID.TID 0000.0001) %MON dynstat_eta_max              =   4.0777214313821E-04
(PID.TID 0000.0001) %MON dynstat_eta_min              =  -4.0773287343890E-04
(PID.TID 0000.0001) %MON dynstat_eta_mean             =   7.6195257481260E-18
(PID.TID 0000.0001) %MON dynstat_eta_sd               =   3.7356300873778E-04
(PID.TID 0000.0001) %MON dynstat_eta_del2             =   3.7556974028976E-06
(PID.TID 0000.0001) %MON dynstat_uvel_max             =   1.3966589224309E-02
(PID.TID 0000.0001) %MON dynstat_uvel_min             =  -1.3970092123278E-02
(PID.TID 0000.0001) %MON dynstat_uvel_mean            =  -9.1458188231684E-07
(PID.TID 0000.0001) %MON dynstat_uvel_sd              =   3.1306258737890E-03
(PID.TID 0000.0001) %MON dynstat_uvel_del2            =   9.3928284921378E-05
(PID.TID 0000.0001) %MON dynstat_vvel_max             =   2.1424923839179E-02
(PID.TID 0000.0001) %MON dynstat_vvel_min             =  -2.1422120897930E-02
(PID.TID 0000.0001) %MON dynstat_vvel_mean            =   1.6386145294055E-10
(PID.TID 0000.0001) %MON dynstat_vvel_sd              =   4.7687863737477E-03
(PID.TID 0000.0001) %MON dynstat_vvel_del2            =   1.5836574259006E-04
(PID.TID 0000.0001) %MON dynstat_wvel_max             =   3.7807208322864E-04
(PID.TID 0000.0001) %MON dynstat_wvel_min             =  -3.7800071880590E-04
(PID.TID 0000.0001) %MON dynstat_wvel_mean            =   1.7117664136608E-21
(PID.TID 0000.0001) %MON dynstat_wvel_sd              =   1.1959147376737E-04
(PID.TID 0000.0001) %MON dynstat_wvel_del2            =   8.9965072843286E-06
(PID.TID 0000.0001) %MON dynstat_theta_max            =   1.7020391872709E+01
(PID.TID 0000.0001) %MON dynstat_theta_min            =   1.6979608188987E+01
(PID.TID 0000.0001) %MON dynstat_theta_mean           =   1.6999999916894E+01
(PID.TID 0000.0001) %MON dynstat_theta_sd             =   1.8684021219424E-02
(PID.TID 0000.0001) %MON dynstat_theta_del2           =   1.9436929592289E-04
(PID.TID 0000.0001) %MON dynstat_salt_max             =   1.7020387109310E+01
(PID.TID 0000.0001) %MON dynstat_salt_min             =   1.6979612982853E+01
(PID.TID 0000.0001) %MON dynstat_salt_mean            =   1.7000000005831E+01
(PID.TID 0000.0001) %MON dynstat_salt_sd              =   1.8685248072061E-02
(PID.TID 0000.0001) %MON dynstat_salt_del2            =   1.8879720680535E-04
(PID.TID 0000.0001) %MON advcfl_uvel_max              =   1.6764110547933E-02
(PID.TID 0000.0001) %MON advcfl_vvel_max              =   2.5709908607015E-02
(PID.TID 0000.0001) %MON advcfl_wvel_max              =   9.0737299974874E-02
(PID.TID 0000.0001) %MON advcfl_W_hf_max              =   9.0737299974874E-02
(PID.TID 0000.0001) %MON pe_b_mean                    =   3.4224471097193E-09
(PID.TID 0000.0001) %MON ke_max                       =   3.2171690991939E-04
(PID.TID 0000.0001) %MON ke_mean                      =   1.5816244868701E-05
(PID.TID 0000.0001) %MON ke_vol                       =   2.5000000000000E+11
(PID.TID 0000.0001) %MON vort_r_min                   =  -4.2686965665911E-06
(PID.TID 0000.0001) %MON vort_r_max                   =   4.3567866524079E-06
(PID.TID 0000.0001) %MON vort_a_mean                  =   7.2900000000001E-05
(PID.TID 0000.0001) %MON vort_a_sd                    =   1.1295055893902E-06
(PID.TID 0000.0001) %MON vort_p_mean                  =   7.7363265306123E-05
(PID.TID 0000.0001) %MON vort_p_sd                    =   3.0944293228435E-05
(PID.TID 0000.0001) %MON surfExpan_theta_mean         =  -1.1879162353047E-13
(PID.TID 0000.0001) %MON surfExpan_salt_mean          =   5.7105495521709E-17
(PID.TID 0000.0001) // =======================================================
(PID.TID 0000.0001) // End MONITOR dynamic field statistics
(PID.TID 0000.0001) // =======================================================
 cg2d: Sum(rhs),rhsMax =  -2.17201473820539E-14  6.38635221770780E-04
(PID.TID 0000.0001)                    cg2d_init_res =    1.41444891447117E-01
(PID.TID 0000.0001)                       cg2d_iters =    76
(PID.TID 0000.0001)                         cg2d_res =    8.45931717271909E-12
(PID.TID 0000.0001) // =======================================================
(PID.TID 0000.0001) // Begin MONITOR dynamic field statistics
(PID.TID 0000.0001) // =======================================================
(PID.TID 0000.0001) %MON time_tsnumber                =                    15
(PID.TID 0000.0001) %MON time_secondsf                =   1.8000000000000E+04
(PID.TID 0000.0001) %MON dynstat_eta_max              =   4.0756654241080E-04
(PID.TID 0000.0001) %MON dynstat_eta_min              =  -4.0793849441308E-04
(PID.TID 0000.0001) %MON dynstat_eta_mean             =   3.5556396121850E-18
(PID.TID 0000.0001) %MON dynstat_eta_sd               =   3.7354287443434E-04
(PID.TID 0000.0001) %MON dynstat_eta_del2             =   3.7557852511210E-06
(PID.TID 0000.0001) %MON dynstat_uvel_max             =   1.5608115504017E-02
(PID.TID 0000.0001) %MON dynstat_uvel_min             =  -1.5611758092362E-02
(PID.TID 0000.0001) %MON dynstat_uvel_mean            =  -9.1457565962258E-07
(PID.TID 0000.0001) %MON dynstat_uvel_sd              =   3.5159825214099E-03
(PID.TID 0000.0001) %MON dynstat_uvel_del2            =   1.0444218043180E-04
(PID.TID 0000.0001) %MON dynstat_vvel_max             =   2.2016490528278E-02
(PID.TID 0000.0001) %MON dynstat_vvel_min             =  -2.2013649637877E-02
(PID.TID 0000.0001) %MON dynstat_vvel_mean            =   1.9043622982722E-10
(PID.TID 0000.0001) %MON dynstat_vvel_sd              =   4.8990156469931E-03
(PID.TID 0000.0001) %MON dynstat_vvel_del2            =   1.6311482072074E-04
(PID.TID 0000.0001) %MON dynstat_wvel_max             =   3.8885954342299E-04
(PID.TID 0000.0001) %MON dynstat_wvel_min             =  -3.8880570816517E-04
(PID.TID 0000.0001) %MON dynstat_wvel_mean            =   3.4267740346884E-21
(PID.TID 0000.0001) %MON dynstat_wvel_sd              =   1.2283346007122E-04
(PID.TID 0000.0001) %MON dynstat_wvel_del2            =   9.2403532091253E-06
(PID.TID 0000.0001) %MON dynstat_theta_max            =   1.7020391872709E+01
(PID.TID 0000.0001) %MON dynstat_theta_min            =   1.6979608188987E+01
(PID.TID 0000.0001) %MON dynstat_theta_mean           =   1.6999999916895E+01
(PID.TID 0000.0001) %MON dynstat_theta_sd             =   1.8683855543310E-02
(PID.TID 0000.0001) %MON dynstat_theta_del2           =   1.9479920563918E-04
(PID.TID 0000.0001) %MON dynstat_salt_max             =   1.7020387109310E+01
(PID.TID 0000.0001) %MON dynstat_salt_min             =   1.6979612982853E+01
(PID.TID 0000.0001) %MON dynstat_salt_mean            =   1.7000000005831E+01
(PID.TID 0000.0001) %MON dynstat_salt_sd              =   1.8685231021318E-02
(PID.TID 0000.0001) %MON dynstat_salt_del2            =   1.8886875083974E-04
(PID.TID 0000.0001) %MON advcfl_uvel_max              =   1.8734109710834E-02
(PID.TID 0000.0001) %MON advcfl_vvel_max              =   2.6419788633934E-02
(PID.TID 0000.0001) %MON advcfl_wvel_max              =   9.3326290421518E-02
(PID.TID 0000.0001) %MON advcfl_W_hf_max              =   9.3326290421518E-02
(PID.TID 0000.0001) %MON pe_b_mean                    =   3.4220781934723E-09
(PID.TID 0000.0001) %MON ke_max                       =   3.5782027304185E-04
(PID.TID 0000.0001) %MON ke_mean                      =   1.7701237032206E-05
(PID.TID 0000.0001) %MON ke_vol                       =   2.5000000000000E+11
(PID.TID 0000.0001) %MON vort_r_min                   =  -4.7356346638227E-06
(PID.TID 0000.0001) %MON vort_r_max                   =   4.8372217483688E-06
(PID.TID 0000.0001) %MON vort_a_mean                  =   7.2900000000000E-05
(PID.TID 0000.0001) %MON vort_a_sd                    =   1.2623809192566E-06
(PID.TID 0000.0001) %MON vort_p_mean                  =   7.7363265306123E-05
(PID.TID 0000.0001) %MON vort_p_sd                    =   3.0949742531284E-05
(PID.TID 0000.0001) %MON surfExpan_theta_mean         =  -8.6832569464989E-14
(PID.TID 0000.0001) %MON surfExpan_salt_mean          =   7.5087775437677E-17
(PID.TID 0000.0001) // =======================================================
(PID.TID 0000.0001) // End MONITOR dynamic field statistics
(PID.TID 0000.0001) // =======================================================
 cg2d: Sum(rhs),rhsMax =  -1.50599476465840E-14  6.43269340089307E-04
(PID.TID 0000.0001)                    cg2d_init_res =    1.67717466776774E-01
(PID.TID 0000.0001)                       cg2d_iters =    76
(PID.TID 0000.0001)                         cg2d_res =    9.50893711643261E-12
(PID.TID 0000.0001) // =======================================================
(PID.TID 0000.0001) // Begin MONITOR dynamic field statistics
(PID.TID 0000.0001) // =======================================================
(PID.TID 0000.0001) %MON time_tsnumber                =                    16
(PID.TID 0000.0001) %MON time_secondsf                =   1.9200000000000E+04
(PID.TID 0000.0001) %MON dynstat_eta_max              =   4.0730659252069E-04
(PID.TID 0000.0001) %MON dynstat_eta_min              =  -4.0819846661747E-04
(PID.TID 0000.0001) %MON dynstat_eta_mean             =  -6.7446153334538E-18
(PID.TID 0000.0001) %MON dynstat_eta_sd               =   3.7352072205842E-04
(PID.TID 0000.0001) %MON dynstat_eta_del2             =   3.7589052178013E-06
(PID.TID 0000.0001) %MON dynstat_uvel_max             =   1.7267026722907E-02
(PID.TID 0000.0001) %MON dynstat_uvel_min             =  -1.7270818180846E-02
(PID.TID 0000.0001) %MON dynstat_uvel_mean            =  -9.1457083863411E-07
(PID.TID 0000.0001) %MON dynstat_uvel_sd              =   3.9083613444759E-03
(PID.TID 0000.0001) %MON dynstat_uvel_del2            =   1.1498957485248E-04
(PID.TID 0000.0001) %MON dynstat_vvel_max             =   2.2462669058999E-02
(PID.TID 0000.0001) %MON dynstat_vvel_min             =  -2.2459803217161E-02
(PID.TID 0000.0001) %MON dynstat_vvel_mean            =   2.1758585671662E-10
(PID.TID 0000.0001) %MON dynstat_vvel_sd              =   4.9942415651381E-03
(PID.TID 0000.0001) %MON dynstat_vvel_del2            =   1.6690868597887E-04
(PID.TID 0000.0001) %MON dynstat_wvel_max             =   3.9724293172337E-04
(PID.TID 0000.0001) %MON dynstat_wvel_min             =  -3.9720529488321E-04
(PID.TID 0000.0001) %MON dynstat_wvel_mean            =   2.3855624436745E-21
(PID.TID 0000.0001) %MON dynstat_wvel_sd              =   1.2528986000317E-04
(PID.TID 0000.0001) %MON dynstat_wvel_del2            =   9.4365164202133E-06
(PID.TID 0000.0001) %MON dynstat_theta_max            =   1.7020391872709E+01
(PID.TID 0000.0001) %MON dynstat_theta_min            =   1.6979608188987E+01
(PID.TID 0000.0001) %MON dynstat_theta_mean           =   1.6999999916896E+01
(PID.TID 0000.0001) %MON dynstat_theta_sd             =   1.8683684217638E-02
(PID.TID 0000.0001) %MON dynstat_theta_del2           =   1.9519573475936E-04
(PID.TID 0000.0001) %MON dynstat_salt_max             =   1.7020387109310E+01
(PID.TID 0000.0001) %MON dynstat_salt_min             =   1.6979612982853E+01
(PID.TID 0000.0001) %MON dynstat_salt_mean            =   1.7000000005831E+01
(PID.TID 0000.0001) %MON dynstat_salt_sd              =   1.8685212035103E-02
(PID.TID 0000.0001) %MON dynstat_salt_del2            =   1.8894693655980E-04
(PID.TID 0000.0001) %MON advcfl_uvel_max              =   2.0724981817015E-02
(PID.TID 0000.0001) %MON advcfl_vvel_max              =   2.6955202870799E-02
(PID.TID 0000.0001) %MON advcfl_wvel_max              =   9.5338303613608E-02
(PID.TID 0000.0001) %MON advcfl_W_hf_max              =   9.5338303613608E-02
(PID.TID 0000.0001) %MON pe_b_mean                    =   3.4216723235178E-09
(PID.TID 0000.0001) %MON ke_max                       =   3.9395643871635E-04
(PID.TID 0000.0001) %MON ke_mean                      =   1.9610020046974E-05
(PID.TID 0000.0001) %MON ke_vol                       =   2.5000000000000E+11
(PID.TID 0000.0001) %MON vort_r_min                   =  -5.2024585544445E-06
(PID.TID 0000.0001) %MON vort_r_max                   =   5.3167740754232E-06
(PID.TID 0000.0001) %MON vort_a_mean                  =   7.2899999999999E-05
(PID.TID 0000.0001) %MON vort_a_sd                    =   1.3968168778466E-06
(PID.TID 0000.0001) %MON vort_p_mean                  =   7.7363265306122E-05
(PID.TID 0000.0001) %MON vort_p_sd                    =   3.0955870835550E-05
(PID.TID 0000.0001) %MON surfExpan_theta_mean         =  -4.0889597803509E-14
(PID.TID 0000.0001) %MON surfExpan_salt_mean          =   9.2138727175171E-17
(PID.TID 0000.0001) // =======================================================
(PID.TID 0000.0001) // End MONITOR dynamic field statistics
(PID.TID 0000.0001) // =======================================================
 cg2d: Sum(rhs),rhsMax =   4.86911400955636E-14  6.48551995729894E-04
(PID.TID 0000.0001)                    cg2d_init_res =    1.93360410559742E-01
(PID.TID 0000.0001)                       cg2d_iters =    77
(PID.TID 0000.0001)                         cg2d_res =    9.01746115329550E-12
(PID.TID 0000.0001) // =======================================================
(PID.TID 0000.0001) // Begin MONITOR dynamic field statistics
(PID.TID 0000.0001) // =======================================================
(PID.TID 0000.0001) %MON time_tsnumber                =                    17
(PID.TID 0000.0001) %MON time_secondsf                =   2.0400000000000E+04
(PID.TID 0000.0001) %MON dynstat_eta_max              =   4.0699125668185E-04
(PID.TID 0000.0001) %MON dynstat_eta_min              =  -4.0851382663727E-04
(PID.TID 0000.0001) %MON dynstat_eta_mean             =  -1.7894224457748E-17
(PID.TID 0000.0001) %MON dynstat_eta_sd               =   3.7349704406458E-04
(PID.TID 0000.0001) %MON dynstat_eta_del2             =   3.7631340539104E-06
(PID.TID 0000.0001) %MON dynstat_uvel_max             =   1.8930551255509E-02
(PID.TID 0000.0001) %MON dynstat_uvel_min             =  -1.8934499255957E-02
(PID.TID 0000.0001) %MON dynstat_uvel_mean            =  -9.1456804182506E-07
(PID.TID 0000.0001) %MON dynstat_uvel_sd              =   4.3047638900636E-03
(PID.TID 0000.0001) %MON dynstat_uvel_del2            =   1.2549218134995E-04
(PID.TID 0000.0001) %MON dynstat_vvel_max             =   2.2763611707690E-02
(PID.TID 0000.0001) %MON dynstat_vvel_min             =  -2.2760732717434E-02
(PID.TID 0000.0001) %MON dynstat_vvel_mean            =   2.4472702780592E-10
(PID.TID 0000.0001) %MON dynstat_vvel_sd              =   5.0542347479163E-03
(PID.TID 0000.0001) %MON dynstat_vvel_del2            =   1.6977555429966E-04
(PID.TID 0000.0001) %MON dynstat_wvel_max             =   4.0325054238198E-04
(PID.TID 0000.0001) %MON dynstat_wvel_min             =  -4.0322768172911E-04
(PID.TID 0000.0001) %MON dynstat_wvel_mean            =  -5.2241900068537E-21
(PID.TID 0000.0001) %MON dynstat_wvel_sd              =   1.2696913951826E-04
(PID.TID 0000.0001) %MON dynstat_wvel_del2            =   9.5868890746995E-06
(PID.TID 0000.0001) %MON dynstat_theta_max            =   1.7020391872709E+01
(PID.TID 0000.0001) %MON dynstat_theta_min            =   1.6979608188987E+01
(PID.TID 0000.0001) %MON dynstat_theta_mean           =   1.6999999916896E+01
(PID.TID 0000.0001) %MON dynstat_theta_sd             =   1.8683508253349E-02
(PID.TID 0000.0001) %MON dynstat_theta_del2           =   1.9555426392874E-04
(PID.TID 0000.0001) %MON dynstat_salt_max             =   1.7020387109310E+01
(PID.TID 0000.0001) %MON dynstat_salt_min             =   1.6979612982853E+01
(PID.TID 0000.0001) %MON dynstat_salt_mean            =   1.7000000005831E+01
(PID.TID 0000.0001) %MON dynstat_salt_sd              =   1.8685191090622E-02
(PID.TID 0000.0001) %MON dynstat_salt_del2            =   1.8903153527517E-04
(PID.TID 0000.0001) %MON advcfl_uvel_max              =   2.2721399107149E-02
(PID.TID 0000.0001) %MON advcfl_vvel_max              =   2.7316334049228E-02
(PID.TID 0000.0001) %MON advcfl_wvel_max              =   9.6780130171676E-02
(PID.TID 0000.0001) %MON advcfl_W_hf_max              =   9.6780130171676E-02
(PID.TID 0000.0001) %MON pe_b_mean                    =   3.4212385282102E-09
(PID.TID 0000.0001) %MON ke_max                       =   4.2980498037080E-04
(PID.TID 0000.0001) %MON ke_mean                      =   2.1527235158597E-05
(PID.TID 0000.0001) %MON ke_vol                       =   2.5000000000000E+11
(PID.TID 0000.0001) %MON vort_r_min                   =  -5.6658056310031E-06
(PID.TID 0000.0001) %MON vort_r_max                   =   5.7915282772874E-06
(PID.TID 0000.0001) %MON vort_a_mean                  =   7.2900000000000E-05
(PID.TID 0000.0001) %MON vort_a_sd                    =   1.5318218456787E-06
(PID.TID 0000.0001) %MON vort_p_mean                  =   7.7363265306123E-05
(PID.TID 0000.0001) %MON vort_p_sd                    =   3.0962647231225E-05
(PID.TID 0000.0001) %MON surfExpan_theta_mean         =   1.8922768822235E-14
(PID.TID 0000.0001) %MON surfExpan_salt_mean          =   1.0774612789426E-16
(PID.TID 0000.0001) // =======================================================
(PID.TID 0000.0001) // End MONITOR dynamic field statistics
(PID.TID 0000.0001) // =======================================================
 cg2d: Sum(rhs),rhsMax =   1.09057944966406E-13  6.54446151028810E-04
(PID.TID 0000.0001)                    cg2d_init_res =    2.17577455787001E-01
(PID.TID 0000.0001)                       cg2d_iters =    77
(PID.TID 0000.0001)                         cg2d_res =    9.49946497675458E-12
(PID.TID 0000.0001) // =======================================================
(PID.TID 0000.0001) // Begin MONITOR dynamic field statistics
(PID.TID 0000.0001) // =======================================================
(PID.TID 0000.0001) %MON time_tsnumber                =                    18
(PID.TID 0000.0001) %MON time_secondsf                =   2.1600000000000E+04
(PID.TID 0000.0001) %MON dynstat_eta_max              =   4.0662093436264E-04
(PID.TID 0000.0001) %MON dynstat_eta_min              =  -4.0888417472850E-04
(PID.TID 0000.0001) %MON dynstat_eta_mean             =  -1.9989249738228E-17
(PID.TID 0000.0001) %MON dynstat_eta_sd               =   3.7347248361301E-04
(PID.TID 0000.0001) %MON dynstat_eta_del2             =   3.7684261520320E-06
(PID.TID 0000.0001) %MON dynstat_uvel_max             =   2.0586223253798E-02
(PID.TID 0000.0001) %MON dynstat_uvel_min             =  -2.0590333883565E-02
(PID.TID 0000.0001) %MON dynstat_uvel_mean            =  -9.1456787485695E-07
(PID.TID 0000.0001) %MON dynstat_uvel_sd              =   4.7021964060974E-03
(PID.TID 0000.0001) %MON dynstat_uvel_del2            =   1.3586906212110E-04
(PID.TID 0000.0001) %MON dynstat_vvel_max             =   2.2920470246979E-02
(PID.TID 0000.0001) %MON dynstat_vvel_min             =  -2.2917588906025E-02
(PID.TID 0000.0001) %MON dynstat_vvel_mean            =   2.7124628528615E-10
(PID.TID 0000.0001) %MON dynstat_vvel_sd              =   5.0790352742583E-03
(PID.TID 0000.0001) %MON dynstat_vvel_del2            =   1.7173049544948E-04
(PID.TID 0000.0001) %MON dynstat_wvel_max             =   4.0692931840854E-04
(PID.TID 0000.0001) %MON dynstat_wvel_min             =  -4.0692089584432E-04
(PID.TID 0000.0001) %MON dynstat_wvel_mean            =   4.5418714208067E-21
(PID.TID 0000.0001) %MON dynstat_wvel_sd              =   1.2788525363337E-04
(PID.TID 0000.0001) %MON dynstat_wvel_del2            =   9.6936053921601E-06
(PID.TID 0000.0001) %MON dynstat_theta_max            =   1.7020391872709E+01
(PID.TID 0000.0001) %MON dynstat_theta_min            =   1.6979608188987E+01
(PID.TID 0000.0001) %MON dynstat_theta_mean           =   1.6999999916896E+01
(PID.TID 0000.0001) %MON dynstat_theta_sd             =   1.8683328708430E-02
(PID.TID 0000.0001) %MON dynstat_theta_del2           =   1.9587130230081E-04
(PID.TID 0000.0001) %MON dynstat_salt_max             =   1.7020387109310E+01
(PID.TID 0000.0001) %MON dynstat_salt_min             =   1.6979612982853E+01
(PID.TID 0000.0001) %MON dynstat_salt_mean            =   1.7000000005831E+01
(PID.TID 0000.0001) %MON dynstat_salt_sd              =   1.8685168180518E-02
(PID.TID 0000.0001) %MON dynstat_salt_del2            =   1.8912219392464E-04
(PID.TID 0000.0001) %MON advcfl_uvel_max              =   2.4708400660279E-02
(PID.TID 0000.0001) %MON advcfl_vvel_max              =   2.7504564296374E-02
(PID.TID 0000.0001) %MON advcfl_wvel_max              =   9.7663036418049E-02
(PID.TID 0000.0001) %MON advcfl_W_hf_max              =   9.7663036418049E-02
(PID.TID 0000.0001) %MON pe_b_mean                    =   3.4207885947941E-09
(PID.TID 0000.0001) %MON ke_max                       =   4.6505499978388E-04
(PID.TID 0000.0001) %MON ke_mean                      =   2.3437693611212E-05
(PID.TID 0000.0001) %MON ke_vol                       =   2.5000000000000E+11
(PID.TID 0000.0001) %MON vort_r_min                   =  -6.1225191237587E-06
(PID.TID 0000.0001) %MON vort_r_max                   =   6.2577923978788E-06
(PID.TID 0000.0001) %MON vort_a_mean                  =   7.2900000000000E-05
(PID.TID 0000.0001) %MON vort_a_sd                    =   1.6664261325293E-06
(PID.TID 0000.0001) %MON vort_p_mean                  =   7.7363265306123E-05
(PID.TID 0000.0001) %MON vort_p_sd                    =   3.0970023802144E-05
(PID.TID 0000.0001) %MON surfExpan_theta_mean         =   9.1677500140569E-14
(PID.TID 0000.0001) %MON surfExpan_salt_mean          =   1.2145959627032E-16
(PID.TID 0000.0001) // =======================================================
(PID.TID 0000.0001) // End MONITOR dynamic field statistics
(PID.TID 0000.0001) // =======================================================
 cg2d: Sum(rhs),rhsMax =   1.78967138417946E-13  6.60898527681640E-04
(PID.TID 0000.0001)                    cg2d_init_res =    2.39676138961713E-01
(PID.TID 0000.0001)                       cg2d_iters =    77
(PID.TID 0000.0001)                         cg2d_res =    9.57737626989056E-12
(PID.TID 0000.0001) // =======================================================
(PID.TID 0000.0001) // Begin MONITOR dynamic field statistics
(PID.TID 0000.0001) // =======================================================
(PID.TID 0000.0001) %MON time_tsnumber                =                    19
(PID.TID 0000.0001) %MON time_secondsf                =   2.2800000000000E+04
(PID.TID 0000.0001) %MON dynstat_eta_max              =   4.0619748522820E-04
(PID.TID 0000.0001) %MON dynstat_eta_min              =  -4.0930765090004E-04
(PID.TID 0000.0001) %MON dynstat_eta_mean             =  -1.0738057327209E-17
(PID.TID 0000.0001) %MON dynstat_eta_sd               =   3.7344780614148E-04
(PID.TID 0000.0001) %MON dynstat_eta_del2             =   3.7747078228366E-06
(PID.TID 0000.0001) %MON dynstat_uvel_max             =   2.2221972180640E-02
(PID.TID 0000.0001) %MON dynstat_uvel_min             =  -2.2226248803591E-02
(PID.TID 0000.0001) %MON dynstat_uvel_mean            =  -9.1457088926639E-07
(PID.TID 0000.0001) %MON dynstat_uvel_sd              =   5.0976916469361E-03
(PID.TID 0000.0001) %MON dynstat_uvel_del2            =   1.4604660607080E-04
(PID.TID 0000.0001) %MON dynstat_vvel_max             =   2.2935383716600E-02
(PID.TID 0000.0001) %MON dynstat_vvel_min             =  -2.2932510104374E-02
(PID.TID 0000.0001) %MON dynstat_vvel_mean            =   2.9651755951995E-10
(PID.TID 0000.0001) %MON dynstat_vvel_sd              =   5.0689521842857E-03
(PID.TID 0000.0001) %MON dynstat_vvel_del2            =   1.7279387685275E-04
(PID.TID 0000.0001) %MON dynstat_wvel_max             =   4.0844115444674E-04
(PID.TID 0000.0001) %MON dynstat_wvel_min             =  -4.0844449880271E-04
(PID.TID 0000.0001) %MON dynstat_wvel_mean            =   3.8007053901592E-21
(PID.TID 0000.0001) %MON dynstat_wvel_sd              =   1.2805752708495E-04
(PID.TID 0000.0001) %MON dynstat_wvel_del2            =   9.7589960819700E-06
(PID.TID 0000.0001) %MON dynstat_theta_max            =   1.7020391872709E+01
(PID.TID 0000.0001) %MON dynstat_theta_min            =   1.6979608188987E+01
(PID.TID 0000.0001) %MON dynstat_theta_mean           =   1.6999999916895E+01
(PID.TID 0000.0001) %MON dynstat_theta_sd             =   1.8683146675598E-02
(PID.TID 0000.0001) %MON dynstat_theta_del2           =   1.9614451401975E-04
(PID.TID 0000.0001) %MON dynstat_salt_max             =   1.7020387109310E+01
(PID.TID 0000.0001) %MON dynstat_salt_min             =   1.6979612982853E+01
(PID.TID 0000.0001) %MON dynstat_salt_mean            =   1.7000000005831E+01
(PID.TID 0000.0001) %MON dynstat_salt_sd              =   1.8685143312625E-02
(PID.TID 0000.0001) %MON dynstat_salt_del2            =   1.8921795714651E-04
(PID.TID 0000.0001) %MON advcfl_uvel_max              =   2.6671498564309E-02
(PID.TID 0000.0001) %MON advcfl_vvel_max              =   2.7522460459921E-02
(PID.TID 0000.0001) %MON advcfl_wvel_max              =   9.8026679712650E-02
(PID.TID 0000.0001) %MON advcfl_W_hf_max              =   9.8026679712650E-02
(PID.TID 0000.0001) %MON pe_b_mean                    =   3.4203365474389E-09
(PID.TID 0000.0001) %MON ke_max                       =   4.9940831194302E-04
(PID.TID 0000.0001) %MON ke_mean                      =   2.5326483080197E-05
(PID.TID 0000.0001) %MON ke_vol                       =   2.5000000000000E+11
(PID.TID 0000.0001) %MON vort_r_min                   =  -6.5696591015229E-06
(PID.TID 0000.0001) %MON vort_r_max                   =   6.7121318849394E-06
(PID.TID 0000.0001) %MON vort_a_mean                  =   7.2900000000000E-05
(PID.TID 0000.0001) %MON vort_a_sd                    =   1.7996874464351E-06
(PID.TID 0000.0001) %MON vort_p_mean                  =   7.7363265306122E-05
(PID.TID 0000.0001) %MON vort_p_sd                    =   3.0977936466815E-05
(PID.TID 0000.0001) %MON surfExpan_theta_mean         =   1.7564350443331E-13
(PID.TID 0000.0001) %MON surfExpan_salt_mean          =   1.3259797161709E-16
(PID.TID 0000.0001) // =======================================================
(PID.TID 0000.0001) // End MONITOR dynamic field statistics
(PID.TID 0000.0001) // =======================================================
 cg2d: Sum(rhs),rhsMax =   1.37462849263137E-13  6.67817867958519E-04
(PID.TID 0000.0001)                    cg2d_init_res =    2.59085513677563E-01
(PID.TID 0000.0001)                       cg2d_iters =    77
(PID.TID 0000.0001)                         cg2d_res =    9.21952672592044E-12
(PID.TID 0000.0001) // =======================================================
(PID.TID 0000.0001) // Begin MONITOR dynamic field statistics
(PID.TID 0000.0001) // =======================================================
(PID.TID 0000.0001) %MON time_tsnumber                =                    20
(PID.TID 0000.0001) %MON time_secondsf                =   2.4000000000000E+04
(PID.TID 0000.0001) %MON dynstat_eta_max              =   4.0572420997393E-04
(PID.TID 0000.0001) %MON dynstat_eta_min              =  -4.0978095410881E-04
(PID.TID 0000.0001) %MON dynstat_eta_mean             =  -1.0080199750462E-17
(PID.TID 0000.0001) %MON dynstat_eta_sd               =   3.7342385786768E-04
(PID.TID 0000.0001) %MON dynstat_eta_del2             =   3.7818804278941E-06
(PID.TID 0000.0001) %MON dynstat_uvel_max             =   2.3826206032006E-02
(PID.TID 0000.0001) %MON dynstat_uvel_min             =  -2.3830646407583E-02
(PID.TID 0000.0001) %MON dynstat_uvel_mean            =  -9.1457754663046E-07
(PID.TID 0000.0001) %MON dynstat_uvel_sd              =   5.4883303156062E-03
(PID.TID 0000.0001) %MON dynstat_uvel_del2            =   1.5595948162220E-04
(PID.TID 0000.0001) %MON dynstat_vvel_max             =   2.2811456271841E-02
(PID.TID 0000.0001) %MON dynstat_vvel_min             =  -2.2808599710285E-02
(PID.TID 0000.0001) %MON dynstat_vvel_mean            =   3.1992288132534E-10
(PID.TID 0000.0001) %MON dynstat_vvel_sd              =   5.0245616850323E-03
(PID.TID 0000.0001) %MON dynstat_vvel_del2            =   1.7299508413029E-04
(PID.TID 0000.0001) %MON dynstat_wvel_max             =   4.0775867656134E-04
(PID.TID 0000.0001) %MON dynstat_wvel_min             =  -4.0777230854393E-04
(PID.TID 0000.0001) %MON dynstat_wvel_mean            =   3.2742479177800E-21
(PID.TID 0000.0001) %MON dynstat_wvel_sd              =   1.2751050724851E-04
(PID.TID 0000.0001) %MON dynstat_wvel_del2            =   9.7855975773960E-06
(PID.TID 0000.0001) %MON dynstat_theta_max            =   1.7020391872709E+01
(PID.TID 0000.0001) %MON dynstat_theta_min            =   1.6979608188987E+01
(PID.TID 0000.0001) %MON dynstat_theta_mean           =   1.6999999916894E+01
(PID.TID 0000.0001) %MON dynstat_theta_sd             =   1.8682963274593E-02
(PID.TID 0000.0001) %MON dynstat_theta_del2           =   1.9637271122452E-04
(PID.TID 0000.0001) %MON dynstat_salt_max             =   1.7020387109310E+01
(PID.TID 0000.0001) %MON dynstat_salt_min             =   1.6979612982853E+01
(PID.TID 0000.0001) %MON dynstat_salt_mean            =   1.7000000005831E+01
(PID.TID 0000.0001) %MON dynstat_salt_sd              =   1.8685116510481E-02
(PID.TID 0000.0001) %MON dynstat_salt_del2            =   1.8931799741511E-04
(PID.TID 0000.0001) %MON advcfl_uvel_max              =   2.8596775689099E-02
(PID.TID 0000.0001) %MON advcfl_vvel_max              =   2.7373747526209E-02
(PID.TID 0000.0001) %MON advcfl_wvel_max              =   9.7865354050544E-02
(PID.TID 0000.0001) %MON advcfl_W_hf_max              =   9.7865354050544E-02
(PID.TID 0000.0001) %MON pe_b_mean                    =   3.4198978862478E-09
(PID.TID 0000.0001) %MON ke_max                       =   5.3258251177791E-04
(PID.TID 0000.0001) %MON ke_mean                      =   2.7179070905640E-05
(PID.TID 0000.0001) %MON ke_vol                       =   2.5000000000000E+11
(PID.TID 0000.0001) %MON vort_r_min                   =  -7.0045112754077E-06
(PID.TID 0000.0001) %MON vort_r_max                   =   7.1513994959273E-06
(PID.TID 0000.0001) %MON vort_a_mean                  =   7.2900000000000E-05
(PID.TID 0000.0001) %MON vort_a_sd                    =   1.9306962249502E-06
(PID.TID 0000.0001) %MON vort_p_mean                  =   7.7363265306123E-05
(PID.TID 0000.0001) %MON vort_p_sd                    =   3.0986306270218E-05
(PID.TID 0000.0001) %MON surfExpan_theta_mean         =   2.6834382096772E-13
(PID.TID 0000.0001) %MON surfExpan_salt_mean          =   1.4063007057621E-16
(PID.TID 0000.0001) // =======================================================
(PID.TID 0000.0001) // End MONITOR dynamic field statistics
(PID.TID 0000.0001) // =======================================================
 cg2d: Sum(rhs),rhsMax =   1.10012097088302E-13  6.75127095713966E-04
(PID.TID 0000.0001)                    cg2d_init_res =    2.75344950321947E-01
(PID.TID 0000.0001)                       cg2d_iters =    77
(PID.TID 0000.0001)                         cg2d_res =    8.50220454565682E-12
(PID.TID 0000.0001) // =======================================================
(PID.TID 0000.0001) // Begin MONITOR dynamic field statistics
(PID.TID 0000.0001) // =======================================================
(PID.TID 0000.0001) %MON time_tsnumber                =                    21
(PID.TID 0000.0001) %MON time_secondsf                =   2.5200000000000E+04
(PID.TID 0000.0001) %MON dynstat_eta_max              =   4.0520578901315E-04
(PID.TID 0000.0001) %MON dynstat_eta_min              =  -4.1029940358652E-04
(PID.TID 0000.0001) %MON dynstat_eta_mean             =  -9.4835441472041E-18
(PID.TID 0000.0001) %MON dynstat_eta_sd               =   3.7340151422106E-04
(PID.TID 0000.0001) %MON dynstat_eta_del2             =   3.7898240948410E-06
(PID.TID 0000.0001) %MON dynstat_uvel_max             =   2.5387887601697E-02
(PID.TID 0000.0001) %MON dynstat_uvel_min             =  -2.5392486479209E-02
(PID.TID 0000.0001) %MON dynstat_uvel_mean            =  -9.1458818614742E-07
(PID.TID 0000.0001) %MON dynstat_uvel_sd              =   5.8712619735889E-03
(PID.TID 0000.0001) %MON dynstat_uvel_del2            =   1.6557337614506E-04
(PID.TID 0000.0001) %MON dynstat_vvel_max             =   2.2552725572435E-02
(PID.TID 0000.0001) %MON dynstat_vvel_min             =  -2.2549894781478E-02
(PID.TID 0000.0001) %MON dynstat_vvel_mean            =   3.4086720935034E-10
(PID.TID 0000.0001) %MON dynstat_vvel_sd              =   4.9467043591909E-03
(PID.TID 0000.0001) %MON dynstat_vvel_del2            =   1.7238011106504E-04
(PID.TID 0000.0001) %MON dynstat_wvel_max             =   4.0496613080264E-04
(PID.TID 0000.0001) %MON dynstat_wvel_min             =  -4.0498864186652E-04
(PID.TID 0000.0001) %MON dynstat_wvel_mean            =   5.6767599275596E-21
(PID.TID 0000.0001) %MON dynstat_wvel_sd              =   1.2627379575984E-04
(PID.TID 0000.0001) %MON dynstat_wvel_del2            =   9.7761784407636E-06
(PID.TID 0000.0001) %MON dynstat_theta_max            =   1.7020391872709E+01
(PID.TID 0000.0001) %MON dynstat_theta_min            =   1.6979608188987E+01
(PID.TID 0000.0001) %MON dynstat_theta_mean           =   1.6999999916892E+01
(PID.TID 0000.0001) %MON dynstat_theta_sd             =   1.8682779641834E-02
(PID.TID 0000.0001) %MON dynstat_theta_del2           =   1.9655581585554E-04
(PID.TID 0000.0001) %MON dynstat_salt_max             =   1.7020387109310E+01
(PID.TID 0000.0001) %MON dynstat_salt_min             =   1.6979612982853E+01
(PID.TID 0000.0001) %MON dynstat_salt_mean            =   1.7000000005831E+01
(PID.TID 0000.0001) %MON dynstat_salt_sd              =   1.8685087811800E-02
(PID.TID 0000.0001) %MON dynstat_salt_del2            =   1.8942149709348E-04
(PID.TID 0000.0001) %MON advcfl_uvel_max              =   3.0470983775051E-02
(PID.TID 0000.0001) %MON advcfl_vvel_max              =   2.7063270686922E-02
(PID.TID 0000.0001) %MON advcfl_wvel_max              =   9.7197274047966E-02
(PID.TID 0000.0001) %MON advcfl_W_hf_max              =   9.7197274047966E-02
(PID.TID 0000.0001) %MON pe_b_mean                    =   3.4194886424237E-09
(PID.TID 0000.0001) %MON ke_max                       =   5.6431380198494E-04
(PID.TID 0000.0001) %MON ke_mean                      =   2.8981403327765E-05
(PID.TID 0000.0001) %MON ke_vol                       =   2.5000000000000E+11
(PID.TID 0000.0001) %MON vort_r_min                   =  -7.4245934467059E-06
(PID.TID 0000.0001) %MON vort_r_max                   =   7.5727601334607E-06
(PID.TID 0000.0001) %MON vort_a_mean                  =   7.2899999999999E-05
(PID.TID 0000.0001) %MON vort_a_sd                    =   2.0585807953421E-06
(PID.TID 0000.0001) %MON vort_p_mean                  =   7.7363265306122E-05
(PID.TID 0000.0001) %MON vort_p_sd                    =   3.0995041080392E-05
(PID.TID 0000.0001) %MON surfExpan_theta_mean         =   3.6666364040140E-13
(PID.TID 0000.0001) %MON surfExpan_salt_mean          =   1.4516880121725E-16
(PID.TID 0000.0001) // =======================================================
(PID.TID 0000.0001) // End MONITOR dynamic field statistics
(PID.TID 0000.0001) // =======================================================
 cg2d: Sum(rhs),rhsMax =   6.11342573786366E-14  6.82759125054262E-04
(PID.TID 0000.0001)                    cg2d_init_res =    2.88107133443076E-01
(PID.TID 0000.0001)                       cg2d_iters =    76
(PID.TID 0000.0001)                         cg2d_res =    9.28446173890455E-12
(PID.TID 0000.0001) // =======================================================
(PID.TID 0000.0001) // Begin MONITOR dynamic field statistics
(PID.TID 0000.0001) // =======================================================
(PID.TID 0000.0001) %MON time_tsnumber                =                    22
(PID.TID 0000.0001) %MON time_secondsf                =   2.6400000000000E+04
(PID.TID 0000.0001) %MON dynstat_eta_max              =   4.0464818123173E-04
(PID.TID 0000.0001) %MON dynstat_eta_min              =  -4.1085704011812E-04
(PID.TID 0000.0001) %MON dynstat_eta_mean             =  -6.3430133717679E-18
(PID.TID 0000.0001) %MON dynstat_eta_sd               =   3.7338162200509E-04
(PID.TID 0000.0001) %MON dynstat_eta_del2             =   3.7984018778900E-06
(PID.TID 0000.0001) %MON dynstat_uvel_max             =   2.6896602144197E-02
(PID.TID 0000.0001) %MON dynstat_uvel_min             =  -2.6901352030489E-02
(PID.TID 0000.0001) %MON dynstat_uvel_mean            =  -9.1460299841231E-07
(PID.TID 0000.0001) %MON dynstat_uvel_sd              =   6.2437252564881E-03
(PID.TID 0000.0001) %MON dynstat_uvel_del2            =   1.7481508095653E-04
(PID.TID 0000.0001) %MON dynstat_vvel_max             =   2.2164122237163E-02
(PID.TID 0000.0001) %MON dynstat_vvel_min             =  -2.2161325296857E-02
(PID.TID 0000.0001) %MON dynstat_vvel_mean            =   3.5879580418679E-10
(PID.TID 0000.0001) %MON dynstat_vvel_sd              =   4.8364818140492E-03
(PID.TID 0000.0001) %MON dynstat_vvel_del2            =   1.7098515926702E-04
(PID.TID 0000.0001) %MON dynstat_wvel_max             =   4.0015975035221E-04
(PID.TID 0000.0001) %MON dynstat_wvel_min             =  -4.0018977493846E-04
(PID.TID 0000.0001) %MON dynstat_wvel_mean            =   8.5613676382807E-22
(PID.TID 0000.0001) %MON dynstat_wvel_sd              =   1.2438186804101E-04
(PID.TID 0000.0001) %MON dynstat_wvel_del2            =   9.7336881823551E-06
(PID.TID 0000.0001) %MON dynstat_theta_max            =   1.7020391872709E+01
(PID.TID 0000.0001) %MON dynstat_theta_min            =   1.6979608188987E+01
(PID.TID 0000.0001) %MON dynstat_theta_mean           =   1.6999999916889E+01
(PID.TID 0000.0001) %MON dynstat_theta_sd             =   1.8682596918674E-02
(PID.TID 0000.0001) %MON dynstat_theta_del2           =   1.9669479285054E-04
(PID.TID 0000.0001) %MON dynstat_salt_max             =   1.7020387109310E+01
(PID.TID 0000.0001) %MON dynstat_salt_min             =   1.6979612982853E+01
(PID.TID 0000.0001) %MON dynstat_salt_mean            =   1.7000000005831E+01
(PID.TID 0000.0001) %MON dynstat_salt_sd              =   1.8685057270475E-02
(PID.TID 0000.0001) %MON dynstat_salt_del2            =   1.8952766134554E-04
(PID.TID 0000.0001) %MON advcfl_uvel_max              =   3.2281622436586E-02
(PID.TID 0000.0001) %MON advcfl_vvel_max              =   2.6596946684595E-02
(PID.TID 0000.0001) %MON advcfl_wvel_max              =   9.6045545985231E-02
(PID.TID 0000.0001) %MON advcfl_W_hf_max              =   9.6045545985231E-02
(PID.TID 0000.0001) %MON pe_b_mean                    =   3.4191243193446E-09
(PID.TID 0000.0001) %MON ke_max                       =   5.9435946679797E-04
(PID.TID 0000.0001) %MON ke_mean                      =   3.0719999999564E-05
(PID.TID 0000.0001) %MON ke_vol                       =   2.5000000000000E+11
(PID.TID 0000.0001) %MON vort_r_min                   =  -7.8276594737465E-06
(PID.TID 0000.0001) %MON vort_r_max                   =   7.9738777931039E-06
(PID.TID 0000.0001) %MON vort_a_mean                  =   7.2900000000000E-05
(PID.TID 0000.0001) %MON vort_a_sd                    =   2.1825123258446E-06
(PID.TID 0000.0001) %MON vort_p_mean                  =   7.7363265306123E-05
(PID.TID 0000.0001) %MON vort_p_sd                    =   3.1004037634095E-05
(PID.TID 0000.0001) %MON surfExpan_theta_mean         =   4.6699675339947E-13
(PID.TID 0000.0001) %MON surfExpan_salt_mean          =   1.4596567112077E-16
(PID.TID 0000.0001) // =======================================================
(PID.TID 0000.0001) // End MONITOR dynamic field statistics
(PID.TID 0000.0001) // =======================================================
 cg2d: Sum(rhs),rhsMax =  -7.10402873679850E-14  6.90605740722958E-04
(PID.TID 0000.0001)                    cg2d_init_res =    2.97159122699248E-01
(PID.TID 0000.0001)                       cg2d_iters =    76
(PID.TID 0000.0001)                         cg2d_res =    8.76187099141011E-12
(PID.TID 0000.0001) // =======================================================
(PID.TID 0000.0001) // Begin MONITOR dynamic field statistics
(PID.TID 0000.0001) // =======================================================
(PID.TID 0000.0001) %MON time_tsnumber                =                    23
(PID.TID 0000.0001) %MON time_secondsf                =   2.7600000000000E+04
(PID.TID 0000.0001) %MON dynstat_eta_max              =   4.0405848613967E-04
(PID.TID 0000.0001) %MON dynstat_eta_min              =  -4.1144676390895E-04
(PID.TID 0000.0001) %MON dynstat_eta_mean             =   1.3439474301769E-17
(PID.TID 0000.0001) %MON dynstat_eta_sd               =   3.7336494001854E-04
(PID.TID 0000.0001) %MON dynstat_eta_del2             =   3.8074642149705E-06
(PID.TID 0000.0001) %MON dynstat_uvel_max             =   2.8342616283556E-02
(PID.TID 0000.0001) %MON dynstat_uvel_min             =  -2.8347507853248E-02
(PID.TID 0000.0001) %MON dynstat_uvel_mean            =  -9.1462200697967E-07
(PID.TID 0000.0001) %MON dynstat_uvel_sd              =   6.6030672436853E-03
(PID.TID 0000.0001) %MON dynstat_uvel_del2            =   1.8390315757298E-04
(PID.TID 0000.0001) %MON dynstat_vvel_max             =   2.1651421109132E-02
(PID.TID 0000.0001) %MON dynstat_vvel_min             =  -2.1648665357667E-02
(PID.TID 0000.0001) %MON dynstat_vvel_mean            =   3.7321066309944E-10
(PID.TID 0000.0001) %MON dynstat_vvel_sd              =   4.6952534059524E-03
(PID.TID 0000.0001) %MON dynstat_vvel_del2            =   1.6885711922065E-04
(PID.TID 0000.0001) %MON dynstat_wvel_max             =   3.9344661573055E-04
(PID.TID 0000.0001) %MON dynstat_wvel_min             =  -3.9348288843443E-04
(PID.TID 0000.0001) %MON dynstat_wvel_mean            =   4.9012006820379E-22
(PID.TID 0000.0001) %MON dynstat_wvel_sd              =   1.2187389188878E-04
(PID.TID 0000.0001) %MON dynstat_wvel_del2            =   9.6607923523739E-06
(PID.TID 0000.0001) %MON dynstat_theta_max            =   1.7020391872709E+01
(PID.TID 0000.0001) %MON dynstat_theta_min            =   1.6979608188987E+01
(PID.TID 0000.0001) %MON dynstat_theta_mean           =   1.6999999916886E+01
(PID.TID 0000.0001) %MON dynstat_theta_sd             =   1.8682416239823E-02
(PID.TID 0000.0001) %MON dynstat_theta_del2           =   1.9679155828585E-04
(PID.TID 0000.0001) %MON dynstat_salt_max             =   1.7020387109310E+01
(PID.TID 0000.0001) %MON dynstat_salt_min             =   1.6979612982853E+01
(PID.TID 0000.0001) %MON dynstat_salt_mean            =   1.7000000005831E+01
(PID.TID 0000.0001) %MON dynstat_salt_sd              =   1.8685024954244E-02
(PID.TID 0000.0001) %MON dynstat_salt_del2            =   1.8963575016645E-04
(PID.TID 0000.0001) %MON advcfl_uvel_max              =   3.4017009423898E-02
(PID.TID 0000.0001) %MON advcfl_vvel_max              =   2.5981705330959E-02
(PID.TID 0000.0001) %MON advcfl_wvel_max              =   9.4435893224262E-02
(PID.TID 0000.0001) %MON advcfl_W_hf_max              =   9.4435893224262E-02
(PID.TID 0000.0001) %MON pe_b_mean                    =   3.4188188061195E-09
(PID.TID 0000.0001) %MON ke_max                       =   6.2249990954587E-04
(PID.TID 0000.0001) %MON ke_mean                      =   3.2382043112713E-05
(PID.TID 0000.0001) %MON ke_vol                       =   2.5000000000000E+11
(PID.TID 0000.0001) %MON vort_r_min                   =  -8.2117008072352E-06
(PID.TID 0000.0001) %MON vort_r_max                   =   8.4257731237787E-06
(PID.TID 0000.0001) %MON vort_a_mean                  =   7.2900000000000E-05
(PID.TID 0000.0001) %MON vort_a_sd                    =   2.3017095285391E-06
(PID.TID 0000.0001) %MON vort_p_mean                  =   7.7363265306122E-05
(PID.TID 0000.0001) %MON vort_p_sd                    =   3.1013183868005E-05
(PID.TID 0000.0001) %MON surfExpan_theta_mean         =   5.6542298348310E-13
(PID.TID 0000.0001) %MON surfExpan_salt_mean          =   1.4317669331434E-16
(PID.TID 0000.0001) // =======================================================
(PID.TID 0000.0001) // End MONITOR dynamic field statistics
(PID.TID 0000.0001) // =======================================================
 cg2d: Sum(rhs),rhsMax =   8.09796023640286E-15  6.98578976509804E-04
(PID.TID 0000.0001)                    cg2d_init_res =    3.02392628028847E-01
(PID.TID 0000.0001)                       cg2d_iters =    76
(PID.TID 0000.0001)                         cg2d_res =    8.74679275289164E-12
(PID.TID 0000.0001) // =======================================================
(PID.TID 0000.0001) // Begin MONITOR dynamic field statistics
(PID.TID 0000.0001) // =======================================================
(PID.TID 0000.0001) %MON time_tsnumber                =                    24
(PID.TID 0000.0001) %MON time_secondsf                =   2.8800000000000E+04
(PID.TID 0000.0001) %MON dynstat_eta_max              =   4.0344477378844E-04
(PID.TID 0000.0001) %MON dynstat_eta_min              =  -4.1206050467713E-04
(PID.TID 0000.0001) %MON dynstat_eta_mean             =   5.7620105392564E-18
(PID.TID 0000.0001) %MON dynstat_eta_sd               =   3.7335208321358E-04
(PID.TID 0000.0001) %MON dynstat_eta_del2             =   3.8168535237090E-06
(PID.TID 0000.0001) %MON dynstat_uvel_max             =   2.9716927726092E-02
(PID.TID 0000.0001) %MON dynstat_uvel_min             =  -2.9721950026960E-02
(PID.TID 0000.0001) %MON dynstat_uvel_mean            =  -9.1464505819188E-07
(PID.TID 0000.0001) %MON dynstat_uvel_sd              =   6.9467618414762E-03
(PID.TID 0000.0001) %MON dynstat_uvel_del2            =   1.9291394465894E-04
(PID.TID 0000.0001) %MON dynstat_vvel_max             =   2.1021185132959E-02
(PID.TID 0000.0001) %MON dynstat_vvel_min             =  -2.1018477394930E-02
(PID.TID 0000.0001) %MON dynstat_vvel_mean            =   3.8368334374259E-10
(PID.TID 0000.0001) %MON dynstat_vvel_sd              =   4.5246339792482E-03
(PID.TID 0000.0001) %MON dynstat_vvel_del2            =   1.6603001515345E-04
(PID.TID 0000.0001) %MON dynstat_wvel_max             =   3.8494360567860E-04
(PID.TID 0000.0001) %MON dynstat_wvel_min             =  -3.8498496083935E-04
(PID.TID 0000.0001) %MON dynstat_wvel_mean            =   3.1347539287817E-21
(PID.TID 0000.0001) %MON dynstat_wvel_sd              =   1.1879355868553E-04
(PID.TID 0000.0001) %MON dynstat_wvel_del2            =   9.5607610329572E-06
(PID.TID 0000.0001) %MON dynstat_theta_max            =   1.7020391872709E+01
(PID.TID 0000.0001) %MON dynstat_theta_min            =   1.6979608188987E+01
(PID.TID 0000.0001) %MON dynstat_theta_mean           =   1.6999999916883E+01
(PID.TID 0000.0001) %MON dynstat_theta_sd             =   1.8682238721434E-02
(PID.TID 0000.0001) %MON dynstat_theta_del2           =   1.9684886681393E-04
(PID.TID 0000.0001) %MON dynstat_salt_max             =   1.7020387109310E+01
(PID.TID 0000.0001) %MON dynstat_salt_min             =   1.6979612982853E+01
(PID.TID 0000.0001) %MON dynstat_salt_mean            =   1.7000000005831E+01
(PID.TID 0000.0001) %MON dynstat_salt_sd              =   1.8684990942609E-02
(PID.TID 0000.0001) %MON dynstat_salt_del2            =   1.8974461946297E-04
(PID.TID 0000.0001) %MON advcfl_uvel_max              =   3.5666340032352E-02
(PID.TID 0000.0001) %MON advcfl_vvel_max              =   2.5225422159551E-02
(PID.TID 0000.0001) %MON advcfl_wvel_max              =   9.2396390601444E-02
(PID.TID 0000.0001) %MON advcfl_W_hf_max              =   9.2396390601444E-02
(PID.TID 0000.0001) %MON pe_b_mean                    =   3.4185833564291E-09
(PID.TID 0000.0001) %MON ke_max                       =   6.4854018883572E-04
(PID.TID 0000.0001) %MON ke_mean                      =   3.3955460529544E-05
(PID.TID 0000.0001) %MON ke_vol                       =   2.5000000000000E+11
(PID.TID 0000.0001) %MON vort_r_min                   =  -8.5749457038435E-06
(PID.TID 0000.0001) %MON vort_r_max                   =   8.8829400179471E-06
(PID.TID 0000.0001) %MON vort_a_mean                  =   7.2900000000000E-05
(PID.TID 0000.0001) %MON vort_a_sd                    =   2.4154430701072E-06
(PID.TID 0000.0001) %MON vort_p_mean                  =   7.7363265306123E-05
(PID.TID 0000.0001) %MON vort_p_sd                    =   3.1022361465564E-05
(PID.TID 0000.0001) %MON surfExpan_theta_mean         =   6.5790534684247E-13
(PID.TID 0000.0001) %MON surfExpan_salt_mean          =   1.3660275618751E-16
(PID.TID 0000.0001) // =======================================================
(PID.TID 0000.0001) // End MONITOR dynamic field statistics
(PID.TID 0000.0001) // =======================================================
 cg2d: Sum(rhs),rhsMax =  -1.19374399688149E-13  7.06593663271077E-04
(PID.TID 0000.0001)                    cg2d_init_res =    3.03802923878628E-01
(PID.TID 0000.0001)                       cg2d_iters =    76
(PID.TID 0000.0001)                         cg2d_res =    9.34827985144829E-12
(PID.TID 0000.0001) // =======================================================
(PID.TID 0000.0001) // Begin MONITOR dynamic field statistics
(PID.TID 0000.0001) // =======================================================
(PID.TID 0000.0001) %MON time_tsnumber                =                    25
(PID.TID 0000.0001) %MON time_secondsf                =   3.0000000000000E+04
(PID.TID 0000.0001) %MON dynstat_eta_max              =   4.0281588769756E-04
(PID.TID 0000.0001) %MON dynstat_eta_min              =  -4.1268941874661E-04
(PID.TID 0000.0001) %MON dynstat_eta_mean             =  -3.5765316630521E-18
(PID.TID 0000.0001) %MON dynstat_eta_sd               =   3.7334347526108E-04
(PID.TID 0000.0001) %MON dynstat_eta_del2             =   3.8264087931016E-06
(PID.TID 0000.0001) %MON dynstat_uvel_max             =   3.1011608509353E-02
(PID.TID 0000.0001) %MON dynstat_uvel_min             =  -3.1016446575627E-02
(PID.TID 0000.0001) %MON dynstat_uvel_mean            =  -9.1467182098989E-07
(PID.TID 0000.0001) %MON dynstat_uvel_sd              =   7.2724270517294E-03
(PID.TID 0000.0001) %MON dynstat_uvel_del2            =   2.0169987961401E-04
(PID.TID 0000.0001) %MON dynstat_vvel_max             =   2.0280702811105E-02
(PID.TID 0000.0001) %MON dynstat_vvel_min             =  -2.0278049004255E-02
(PID.TID 0000.0001) %MON dynstat_vvel_mean            =   3.8986668056538E-10
(PID.TID 0000.0001) %MON dynstat_vvel_sd              =   4.3264940462600E-03
(PID.TID 0000.0001) %MON dynstat_vvel_del2            =   1.6261602282286E-04
(PID.TID 0000.0001) %MON dynstat_wvel_max             =   3.7477625564908E-04
(PID.TID 0000.0001) %MON dynstat_wvel_min             =  -3.7482161947840E-04
(PID.TID 0000.0001) %MON dynstat_wvel_mean            =  -2.8239164676139E-21
(PID.TID 0000.0001) %MON dynstat_wvel_sd              =   1.1518894371513E-04
(PID.TID 0000.0001) %MON dynstat_wvel_del2            =   9.4366334443000E-06
(PID.TID 0000.0001) %MON dynstat_theta_max            =   1.7020391872709E+01
(PID.TID 0000.0001) %MON dynstat_theta_min            =   1.6979608188987E+01
(PID.TID 0000.0001) %MON dynstat_theta_mean           =   1.6999999916879E+01
(PID.TID 0000.0001) %MON dynstat_theta_sd             =   1.8682065449227E-02
(PID.TID 0000.0001) %MON dynstat_theta_del2           =   1.9687018326518E-04
(PID.TID 0000.0001) %MON dynstat_salt_max             =   1.7020387109310E+01
(PID.TID 0000.0001) %MON dynstat_salt_min             =   1.6979612982852E+01
(PID.TID 0000.0001) %MON dynstat_salt_mean            =   1.7000000005831E+01
(PID.TID 0000.0001) %MON dynstat_salt_sd              =   1.8684955332872E-02
(PID.TID 0000.0001) %MON dynstat_salt_del2            =   1.8985310462988E-04
(PID.TID 0000.0001) %MON advcfl_uvel_max              =   3.7219735890752E-02
(PID.TID 0000.0001) %MON advcfl_vvel_max              =   2.4336843373326E-02
(PID.TID 0000.0001) %MON advcfl_wvel_max              =   8.9957188674816E-02
(PID.TID 0000.0001) %MON advcfl_W_hf_max              =   8.9957188674816E-02
(PID.TID 0000.0001) %MON pe_b_mean                    =   3.4184257215034E-09
(PID.TID 0000.0001) %MON ke_max                       =   6.7231100635619E-04
(PID.TID 0000.0001) %MON ke_mean                      =   3.5429002381191E-05
(PID.TID 0000.0001) %MON ke_vol                       =   2.5000000000000E+11
(PID.TID 0000.0001) %MON vort_r_min                   =  -8.9158563365392E-06
(PID.TID 0000.0001) %MON vort_r_max                   =   9.3193732476005E-06
(PID.TID 0000.0001) %MON vort_a_mean                  =   7.2900000000000E-05
(PID.TID 0000.0001) %MON vort_a_sd                    =   2.5230396487550E-06
(PID.TID 0000.0001) %MON vort_p_mean                  =   7.7363265306122E-05
(PID.TID 0000.0001) %MON vort_p_sd                    =   3.1031448545492E-05
(PID.TID 0000.0001) %MON surfExpan_theta_mean         =   7.4049509879245E-13
(PID.TID 0000.0001) %MON surfExpan_salt_mean          =   1.2583922252085E-16
(PID.TID 0000.0001) // =======================================================
(PID.TID 0000.0001) // End MONITOR dynamic field statistics
(PID.TID 0000.0001) // =======================================================
 cg2d: Sum(rhs),rhsMax =   5.28855388301497E-14  7.14569855264451E-04
(PID.TID 0000.0001)                    cg2d_init_res =    3.01477687819932E-01
(PID.TID 0000.0001)                       cg2d_iters =    77
(PID.TID 0000.0001)                         cg2d_res =    8.43515687164326E-12
(PID.TID 0000.0001) // =======================================================
(PID.TID 0000.0001) // Begin MONITOR dynamic field statistics
(PID.TID 0000.0001) // =======================================================
(PID.TID 0000.0001) %MON time_tsnumber                =                    26
(PID.TID 0000.0001) %MON time_secondsf                =   3.1200000000000E+04
(PID.TID 0000.0001) %MON dynstat_eta_max              =   4.0218122670680E-04
(PID.TID 0000.0001) %MON dynstat_eta_min              =  -4.1332410719171E-04
(PID.TID 0000.0001) %MON dynstat_eta_mean             =  -6.3618460471870E-18
(PID.TID 0000.0001) %MON dynstat_eta_sd               =   3.7333931377341E-04
(PID.TID 0000.0001) %MON dynstat_eta_del2             =   3.8359700207918E-06
(PID.TID 0000.0001) %MON dynstat_uvel_max             =   3.2218999127425E-02
(PID.TID 0000.0001) %MON dynstat_uvel_min             =  -3.2223568477813E-02
(PID.TID 0000.0001) %MON dynstat_uvel_mean            =  -9.1470179582294E-07
(PID.TID 0000.0001) %MON dynstat_uvel_sd              =   7.5778410117391E-03
(PID.TID 0000.0001) %MON dynstat_uvel_del2            =   2.1006211692118E-04
(PID.TID 0000.0001) %MON dynstat_vvel_max             =   1.9437920237341E-02
(PID.TID 0000.0001) %MON dynstat_vvel_min             =  -1.9435325586374E-02
(PID.TID 0000.0001) %MON dynstat_vvel_mean            =   3.9150383620783E-10
(PID.TID 0000.0001) %MON dynstat_vvel_sd              =   4.1029646394603E-03
(PID.TID 0000.0001) %MON dynstat_vvel_del2            =   1.5869658407113E-04
(PID.TID 0000.0001) %MON dynstat_wvel_max             =   3.6307752906327E-04
(PID.TID 0000.0001) %MON dynstat_wvel_min             =  -3.6312595769073E-04
(PID.TID 0000.0001) %MON dynstat_wvel_mean            =   1.6904889999991E-21
(PID.TID 0000.0001) %MON dynstat_wvel_sd              =   1.1111241565975E-04
(PID.TID 0000.0001) %MON dynstat_wvel_del2            =   9.2927021898605E-06
(PID.TID 0000.0001) %MON dynstat_theta_max            =   1.7020391872709E+01
(PID.TID 0000.0001) %MON dynstat_theta_min            =   1.6979608188987E+01
(PID.TID 0000.0001) %MON dynstat_theta_mean           =   1.6999999916874E+01
(PID.TID 0000.0001) %MON dynstat_theta_sd             =   1.8681897466928E-02
(PID.TID 0000.0001) %MON dynstat_theta_del2           =   1.9685954349515E-04
(PID.TID 0000.0001) %MON dynstat_salt_max             =   1.7020387109310E+01
(PID.TID 0000.0001) %MON dynstat_salt_min             =   1.6979612982852E+01
(PID.TID 0000.0001) %MON dynstat_salt_mean            =   1.7000000005831E+01
(PID.TID 0000.0001) %MON dynstat_salt_sd              =   1.8684918228579E-02
(PID.TID 0000.0001) %MON dynstat_salt_del2            =   1.8996016635083E-04
(PID.TID 0000.0001) %MON advcfl_uvel_max              =   3.8668282173376E-02
(PID.TID 0000.0001) %MON advcfl_vvel_max              =   2.3325504284810E-02
(PID.TID 0000.0001) %MON advcfl_wvel_max              =   8.7150229845775E-02
(PID.TID 0000.0001) %MON advcfl_W_hf_max              =   8.7150229845775E-02
(PID.TID 0000.0001) %MON pe_b_mean                    =   3.4183495146958E-09
(PID.TID 0000.0001) %MON ke_max                       =   6.9366916596983E-04
(PID.TID 0000.0001) %MON ke_mean                      =   3.6792310657615E-05
(PID.TID 0000.0001) %MON ke_vol                       =   2.5000000000000E+11
(PID.TID 0000.0001) %MON vort_r_min                   =  -9.2331240295294E-06
(PID.TID 0000.0001) %MON vort_r_max                   =   9.7322642042920E-06
(PID.TID 0000.0001) %MON vort_a_mean                  =   7.2900000000000E-05
(PID.TID 0000.0001) %MON vort_a_sd                    =   2.6238856932473E-06
(PID.TID 0000.0001) %MON vort_p_mean                  =   7.7363265306123E-05
(PID.TID 0000.0001) %MON vort_p_sd                    =   3.1040322415728E-05
(PID.TID 0000.0001) %MON surfExpan_theta_mean         =   8.0953209871358E-13
(PID.TID 0000.0001) %MON surfExpan_salt_mean          =   1.1067114080775E-16
(PID.TID 0000.0001) // =======================================================
(PID.TID 0000.0001) // End MONITOR dynamic field statistics
(PID.TID 0000.0001) // =======================================================
 cg2d: Sum(rhs),rhsMax =   1.67845338322481E-14  7.22434557335006E-04
(PID.TID 0000.0001)                    cg2d_init_res =    2.95584944576464E-01
(PID.TID 0000.0001)                       cg2d_iters =    77
(PID.TID 0000.0001)                         cg2d_res =    9.47078776383044E-12
(PID.TID 0000.0001) // =======================================================
(PID.TID 0000.0001) // Begin MONITOR dynamic field statistics
(PID.TID 0000.0001) // =======================================================
(PID.TID 0000.0001) %MON time_tsnumber                =                    27
(PID.TID 0000.0001) %MON time_secondsf                =   3.2400000000000E+04
(PID.TID 0000.0001) %MON dynstat_eta_max              =   4.0155051220836E-04
(PID.TID 0000.0001) %MON dynstat_eta_min              =  -4.1395484861087E-04
(PID.TID 0000.0001) %MON dynstat_eta_mean             =  -1.0492514302962E-17
(PID.TID 0000.0001) %MON dynstat_eta_sd               =   3.7333955137189E-04
(PID.TID 0000.0001) %MON dynstat_eta_del2             =   3.8453823772818E-06
(PID.TID 0000.0001) %MON dynstat_uvel_max             =   3.3332414715624E-02
(PID.TID 0000.0001) %MON dynstat_uvel_min             =  -3.3336711862819E-02
(PID.TID 0000.0001) %MON dynstat_uvel_mean            =  -9.1473433337197E-07
(PID.TID 0000.0001) %MON dynstat_uvel_sd              =   7.8609567050921E-03
(PID.TID 0000.0001) %MON dynstat_uvel_del2            =   2.1785231096508E-04
(PID.TID 0000.0001) %MON dynstat_vvel_max             =   1.8501368702496E-02
(PID.TID 0000.0001) %MON dynstat_vvel_min             =  -1.8498837557338E-02
(PID.TID 0000.0001) %MON dynstat_vvel_mean            =   3.8843479946323E-10
(PID.TID 0000.0001) %MON dynstat_vvel_sd              =   3.8564504417507E-03
(PID.TID 0000.0001) %MON dynstat_vvel_del2            =   1.5429377715510E-04
(PID.TID 0000.0001) %MON dynstat_wvel_max             =   3.4998667636201E-04
(PID.TID 0000.0001) %MON dynstat_wvel_min             =  -3.5003734933648E-04
(PID.TID 0000.0001) %MON dynstat_wvel_mean            =   2.6270317559357E-21
(PID.TID 0000.0001) %MON dynstat_wvel_sd              =   1.0662061979173E-04
(PID.TID 0000.0001) %MON dynstat_wvel_del2            =   9.1312810320930E-06
(PID.TID 0000.0001) %MON dynstat_theta_max            =   1.7020391872709E+01
(PID.TID 0000.0001) %MON dynstat_theta_min            =   1.6979608188987E+01
(PID.TID 0000.0001) %MON dynstat_theta_mean           =   1.6999999916869E+01
(PID.TID 0000.0001) %MON dynstat_theta_sd             =   1.8681735759839E-02
(PID.TID 0000.0001) %MON dynstat_theta_del2           =   1.9682138978938E-04
(PID.TID 0000.0001) %MON dynstat_salt_max             =   1.7020387109310E+01
(PID.TID 0000.0001) %MON dynstat_salt_min             =   1.6979612982852E+01
(PID.TID 0000.0001) %MON dynstat_salt_mean            =   1.7000000005831E+01
(PID.TID 0000.0001) %MON dynstat_salt_sd              =   1.8684879754746E-02
(PID.TID 0000.0001) %MON dynstat_salt_del2            =   1.9006493170388E-04
(PID.TID 0000.0001) %MON advcfl_uvel_max              =   4.0004054235383E-02
(PID.TID 0000.0001) %MON advcfl_vvel_max              =   2.2201642442995E-02
(PID.TID 0000.0001) %MON advcfl_wvel_max              =   8.4008963840755E-02
(PID.TID 0000.0001) %MON advcfl_W_hf_max              =   8.4008963840755E-02
(PID.TID 0000.0001) %MON pe_b_mean                    =   3.4183538656704E-09
(PID.TID 0000.0001) %MON ke_max                       =   7.1249749982185E-04
(PID.TID 0000.0001) %MON ke_mean                      =   3.8035981382681E-05
(PID.TID 0000.0001) %MON ke_vol                       =   2.5000000000000E+11
(PID.TID 0000.0001) %MON vort_r_min                   =  -9.5256629158991E-06
(PID.TID 0000.0001) %MON vort_r_max                   =   1.0119061217220E-05
(PID.TID 0000.0001) %MON vort_a_mean                  =   7.2900000000001E-05
(PID.TID 0000.0001) %MON vort_a_sd                    =   2.7174306445954E-06
(PID.TID 0000.0001) %MON vort_p_mean                  =   7.7363265306123E-05
(PID.TID 0000.0001) %MON vort_p_sd                    =   3.1048862316747E-05
(PID.TID 0000.0001) %MON surfExpan_theta_mean         =   8.6182908822179E-13
(PID.TID 0000.0001) %MON surfExpan_salt_mean          =   9.3183532120918E-17
(PID.TID 0000.0001) // =======================================================
(PID.TID 0000.0001) // End MONITOR dynamic field statistics
(PID.TID 0000.0001) // =======================================================
 cg2d: Sum(rhs),rhsMax =   1.30942511607918E-13  7.30122895969300E-04
(PID.TID 0000.0001)                    cg2d_init_res =    2.86361087922454E-01
(PID.TID 0000.0001)                       cg2d_iters =    78
(PID.TID 0000.0001)                         cg2d_res =    7.24171864778512E-12
(PID.TID 0000.0001) // =======================================================
(PID.TID 0000.0001) // Begin MONITOR dynamic field statistics
(PID.TID 0000.0001) // =======================================================
(PID.TID 0000.0001) %MON time_tsnumber                =                    28
(PID.TID 0000.0001) %MON time_secondsf                =   3.3600000000000E+04
(PID.TID 0000.0001) %MON dynstat_eta_max              =   4.0093354749312E-04
(PID.TID 0000.0001) %MON dynstat_eta_min              =  -4.1457183976629E-04
(PID.TID 0000.0001) %MON dynstat_eta_mean             =  -1.0136188844934E-17
(PID.TID 0000.0001) %MON dynstat_eta_sd               =   3.7334389432809E-04
(PID.TID 0000.0001) %MON dynstat_eta_del2             =   3.8544998739661E-06
(PID.TID 0000.0001) %MON dynstat_uvel_max             =   3.4346090212262E-02
(PID.TID 0000.0001) %MON dynstat_uvel_min             =  -3.4350113563181E-02
(PID.TID 0000.0001) %MON dynstat_uvel_mean            =  -9.1476866043635E-07
(PID.TID 0000.0001) %MON dynstat_uvel_sd              =   8.1199152577286E-03
(PID.TID 0000.0001) %MON dynstat_uvel_del2            =   2.2502690231122E-04
(PID.TID 0000.0001) %MON dynstat_vvel_max             =   1.7480088834744E-02
(PID.TID 0000.0001) %MON dynstat_vvel_min             =  -1.7477624613504E-02
(PID.TID 0000.0001) %MON dynstat_vvel_mean            =   3.8059951150201E-10
(PID.TID 0000.0001) %MON dynstat_vvel_sd              =   3.5896572192469E-03
(PID.TID 0000.0001) %MON dynstat_vvel_del2            =   1.4953562873944E-04
(PID.TID 0000.0001) %MON dynstat_wvel_max             =   3.3564800934578E-04
(PID.TID 0000.0001) %MON dynstat_wvel_min             =  -3.3570022224385E-04
(PID.TID 0000.0001) %MON dynstat_wvel_mean            =  -1.6565639574739E-21
(PID.TID 0000.0001) %MON dynstat_wvel_sd              =   1.0177456358305E-04
(PID.TID 0000.0001) %MON dynstat_wvel_del2            =   8.9557010525068E-06
(PID.TID 0000.0001) %MON dynstat_theta_max            =   1.7020391872708E+01
(PID.TID 0000.0001) %MON dynstat_theta_min            =   1.6979608188987E+01
(PID.TID 0000.0001) %MON dynstat_theta_mean           =   1.6999999916864E+01
(PID.TID 0000.0001) %MON dynstat_theta_sd             =   1.8681581234877E-02
(PID.TID 0000.0001) %MON dynstat_theta_del2           =   1.9676042661554E-04
(PID.TID 0000.0001) %MON dynstat_salt_max             =   1.7020387109310E+01
(PID.TID 0000.0001) %MON dynstat_salt_min             =   1.6979612982852E+01
(PID.TID 0000.0001) %MON dynstat_salt_mean            =   1.7000000005832E+01
(PID.TID 0000.0001) %MON dynstat_salt_sd              =   1.8684840037191E-02
(PID.TID 0000.0001) %MON dynstat_salt_del2            =   1.9016688058287E-04
(PID.TID 0000.0001) %MON advcfl_uvel_max              =   4.1220136275817E-02
(PID.TID 0000.0001) %MON advcfl_vvel_max              =   2.0976106601693E-02
(PID.TID 0000.0001) %MON advcfl_wvel_max              =   8.0568053338524E-02
(PID.TID 0000.0001) %MON advcfl_W_hf_max              =   8.0568053338524E-02
(PID.TID 0000.0001) %MON pe_b_mean                    =   3.4184333956714E-09
(PID.TID 0000.0001) %MON ke_max                       =   7.2870434453467E-04
(PID.TID 0000.0001) %MON ke_mean                      =   3.9151619011560E-05
(PID.TID 0000.0001) %MON ke_vol                       =   2.5000000000000E+11
(PID.TID 0000.0001) %MON vort_r_min                   =  -9.7926046953161E-06
(PID.TID 0000.0001) %MON vort_r_max                   =   1.0477491610426E-05
(PID.TID 0000.0001) %MON vort_a_mean                  =   7.2900000000001E-05
(PID.TID 0000.0001) %MON vort_a_sd                    =   2.8031897834832E-06
(PID.TID 0000.0001) %MON vort_p_mean                  =   7.7363265306123E-05
(PID.TID 0000.0001) %MON vort_p_sd                    =   3.1056952080492E-05
(PID.TID 0000.0001) %MON surfExpan_theta_mean         =   8.9482872046639E-13
(PID.TID 0000.0001) %MON surfExpan_salt_mean          =   7.2727447463661E-17
(PID.TID 0000.0001) // =======================================================
(PID.TID 0000.0001) // End MONITOR dynamic field statistics
(PID.TID 0000.0001) // =======================================================
 cg2d: Sum(rhs),rhsMax =   8.41517610802867E-14  7.37579656139949E-04
(PID.TID 0000.0001)                    cg2d_init_res =    2.74098526038094E-01
(PID.TID 0000.0001)                       cg2d_iters =    78
(PID.TID 0000.0001)                         cg2d_res =    7.43455354950875E-12
(PID.TID 0000.0001) // =======================================================
(PID.TID 0000.0001) // Begin MONITOR dynamic field statistics
(PID.TID 0000.0001) // =======================================================
(PID.TID 0000.0001) %MON time_tsnumber                =                    29
(PID.TID 0000.0001) %MON time_secondsf                =   3.4800000000000E+04
(PID.TID 0000.0001) %MON dynstat_eta_max              =   4.0033997607730E-04
(PID.TID 0000.0001) %MON dynstat_eta_min              =  -4.1516543725913E-04
(PID.TID 0000.0001) %MON dynstat_eta_mean             =   1.3212132082829E-18
(PID.TID 0000.0001) %MON dynstat_eta_sd               =   3.7335181909114E-04
(PID.TID 0000.0001) %MON dynstat_eta_del2             =   3.8631887075647E-06
(PID.TID 0000.0001) %MON dynstat_uvel_max             =   3.5255108940753E-02
(PID.TID 0000.0001) %MON dynstat_uvel_min             =  -3.5258858640037E-02
(PID.TID 0000.0001) %MON dynstat_uvel_mean            =  -9.1480391330036E-07
(PID.TID 0000.0001) %MON dynstat_uvel_sd              =   8.3530577472382E-03
(PID.TID 0000.0001) %MON dynstat_uvel_del2            =   2.3154864953130E-04
(PID.TID 0000.0001) %MON dynstat_vvel_max             =   1.6383552434642E-02
(PID.TID 0000.0001) %MON dynstat_vvel_min             =  -1.6381157705555E-02
(PID.TID 0000.0001) %MON dynstat_vvel_mean            =   3.6804129877537E-10
(PID.TID 0000.0001) %MON dynstat_vvel_sd              =   3.3056440189559E-03
(PID.TID 0000.0001) %MON dynstat_vvel_del2            =   1.4460181326179E-04
(PID.TID 0000.0001) %MON dynstat_wvel_max             =   3.2020974056611E-04
(PID.TID 0000.0001) %MON dynstat_wvel_min             =  -3.2026289100127E-04
(PID.TID 0000.0001) %MON dynstat_wvel_mean            =  -6.3235563201115E-22
(PID.TID 0000.0001) %MON dynstat_wvel_sd              =   9.6639842914280E-05
(PID.TID 0000.0001) %MON dynstat_wvel_del2            =   8.7696806839072E-06
(PID.TID 0000.0001) %MON dynstat_theta_max            =   1.7020391872708E+01
(PID.TID 0000.0001) %MON dynstat_theta_min            =   1.6979608188987E+01
(PID.TID 0000.0001) %MON dynstat_theta_mean           =   1.6999999916859E+01
(PID.TID 0000.0001) %MON dynstat_theta_sd             =   1.8681434743786E-02
(PID.TID 0000.0001) %MON dynstat_theta_del2           =   1.9668154457483E-04
(PID.TID 0000.0001) %MON dynstat_salt_max             =   1.7020387109310E+01
(PID.TID 0000.0001) %MON dynstat_salt_min             =   1.6979612982852E+01
(PID.TID 0000.0001) %MON dynstat_salt_mean            =   1.7000000005832E+01
(PID.TID 0000.0001) %MON dynstat_salt_sd              =   1.8684799223406E-02
(PID.TID 0000.0001) %MON dynstat_salt_del2            =   1.9026485615815E-04
(PID.TID 0000.0001) %MON advcfl_uvel_max              =   4.2310630368045E-02
(PID.TID 0000.0001) %MON advcfl_vvel_max              =   1.9660262921570E-02
(PID.TID 0000.0001) %MON advcfl_wvel_max              =   7.6863093840304E-02
(PID.TID 0000.0001) %MON advcfl_W_hf_max              =   7.6863093840304E-02
(PID.TID 0000.0001) %MON pe_b_mean                    =   3.4185785195777E-09
(PID.TID 0000.0001) %MON ke_max                       =   7.4222261640549E-04
(PID.TID 0000.0001) %MON ke_mean                      =   4.0131882825210E-05
(PID.TID 0000.0001) %MON ke_vol                       =   2.5000000000000E+11
(PID.TID 0000.0001) %MON vort_r_min                   =  -1.0033288673881E-05
(PID.TID 0000.0001) %MON vort_r_max                   =   1.0805579307602E-05
(PID.TID 0000.0001) %MON vort_a_mean                  =   7.2900000000000E-05
(PID.TID 0000.0001) %MON vort_a_sd                    =   2.8807465704385E-06
(PID.TID 0000.0001) %MON vort_p_mean                  =   7.7363265306122E-05
(PID.TID 0000.0001) %MON vort_p_sd                    =   3.1064482635418E-05
(PID.TID 0000.0001) %MON surfExpan_theta_mean         =   9.0672652589757E-13
(PID.TID 0000.0001) %MON surfExpan_salt_mean          =   4.9513458235608E-17
(PID.TID 0000.0001) // =======================================================
(PID.TID 0000.0001) // End MONITOR dynamic field statistics
(PID.TID 0000.0001) // =======================================================
 cg2d: Sum(rhs),rhsMax =  -8.94264046494286E-14  7.44759583376098E-04
(PID.TID 0000.0001)                    cg2d_init_res =    2.59132734237058E-01
(PID.TID 0000.0001)                       cg2d_iters =    78
(PID.TID 0000.0001)                         cg2d_res =    7.48429826139301E-12
(PID.TID 0000.0001) // =======================================================
(PID.TID 0000.0001) // Begin MONITOR dynamic field statistics
(PID.TID 0000.0001) // =======================================================
(PID.TID 0000.0001) %MON time_tsnumber                =                    30
(PID.TID 0000.0001) %MON time_secondsf                =   3.6000000000000E+04
(PID.TID 0000.0001) %MON dynstat_eta_max              =   3.9977904573606E-04
(PID.TID 0000.0001) %MON dynstat_eta_min              =  -4.1572639344063E-04
(PID.TID 0000.0001) %MON dynstat_eta_mean             =   1.6157392951910E-17
(PID.TID 0000.0001) %MON dynstat_eta_sd               =   3.7336260633889E-04
(PID.TID 0000.0001) %MON dynstat_eta_del2             =   3.8713304137897E-06
(PID.TID 0000.0001) %MON dynstat_uvel_max             =   3.6055404093332E-02
(PID.TID 0000.0001) %MON dynstat_uvel_min             =  -3.6058882059050E-02
(PID.TID 0000.0001) %MON dynstat_uvel_mean            =  -9.1483917492502E-07
(PID.TID 0000.0001) %MON dynstat_uvel_sd              =   8.5589354680321E-03
(PID.TID 0000.0001) %MON dynstat_uvel_del2            =   2.3738630592763E-04
(PID.TID 0000.0001) %MON dynstat_vvel_max             =   1.5221583052297E-02
(PID.TID 0000.0001) %MON dynstat_vvel_min             =  -1.5219259365816E-02
(PID.TID 0000.0001) %MON dynstat_vvel_mean            =   3.5088975477140E-10
(PID.TID 0000.0001) %MON dynstat_vvel_sd              =   3.0079189110678E-03
(PID.TID 0000.0001) %MON dynstat_vvel_del2            =   1.3972860203674E-04
(PID.TID 0000.0001) %MON dynstat_wvel_max             =   3.0382685197630E-04
(PID.TID 0000.0001) %MON dynstat_wvel_min             =  -3.0387931448420E-04
(PID.TID 0000.0001) %MON dynstat_wvel_mean            =   2.6766049497242E-21
(PID.TID 0000.0001) %MON dynstat_wvel_sd              =   9.1287051771899E-05
(PID.TID 0000.0001) %MON dynstat_wvel_del2            =   8.5788400495562E-06
(PID.TID 0000.0001) %MON dynstat_theta_max            =   1.7020391872706E+01
(PID.TID 0000.0001) %MON dynstat_theta_min            =   1.6979608188987E+01
(PID.TID 0000.0001) %MON dynstat_theta_mean           =   1.6999999916854E+01
(PID.TID 0000.0001) %MON dynstat_theta_sd             =   1.8681297086761E-02
(PID.TID 0000.0001) %MON dynstat_theta_del2           =   1.9658963230258E-04
(PID.TID 0000.0001) %MON dynstat_salt_max             =   1.7020387109310E+01
(PID.TID 0000.0001) %MON dynstat_salt_min             =   1.6979612982852E+01
(PID.TID 0000.0001) %MON dynstat_salt_mean            =   1.7000000005832E+01
(PID.TID 0000.0001) %MON dynstat_salt_sd              =   1.8684757469295E-02
(PID.TID 0000.0001) %MON dynstat_salt_del2            =   1.9035797494829E-04
(PID.TID 0000.0001) %MON advcfl_uvel_max              =   4.3270658470860E-02
(PID.TID 0000.0001) %MON advcfl_vvel_max              =   1.8265899662756E-02
(PID.TID 0000.0001) %MON advcfl_wvel_max              =   7.2931035476209E-02
(PID.TID 0000.0001) %MON advcfl_W_hf_max              =   7.2931035476209E-02
(PID.TID 0000.0001) %MON pe_b_mean                    =   3.4187760682935E-09
(PID.TID 0000.0001) %MON ke_max                       =   7.5300857761768E-04
(PID.TID 0000.0001) %MON ke_mean                      =   4.0970525155702E-05
(PID.TID 0000.0001) %MON ke_vol                       =   2.5000000000000E+11
(PID.TID 0000.0001) %MON vort_r_min                   =  -1.0247238716094E-05
(PID.TID 0000.0001) %MON vort_r_max                   =   1.1101657781046E-05
(PID.TID 0000.0001) %MON vort_a_mean                  =   7.2900000000001E-05
(PID.TID 0000.0001) %MON vort_a_sd                    =   2.9497544746312E-06
(PID.TID 0000.0001) %MON vort_p_mean                  =   7.7363265306123E-05
(PID.TID 0000.0001) %MON vort_p_sd                    =   3.1071354294824E-05
(PID.TID 0000.0001) %MON surfExpan_theta_mean         =   8.9656707878689E-13
(PID.TID 0000.0001) %MON surfExpan_salt_mean          =   2.4161459814794E-17
(PID.TID 0000.0001) // =======================================================
(PID.TID 0000.0001) // End MONITOR dynamic field statistics
(PID.TID 0000.0001) // =======================================================
 cg2d: Sum(rhs),rhsMax =  -1.71546479278695E-13  7.51627198342652E-04
(PID.TID 0000.0001)                    cg2d_init_res =    2.41836899089072E-01
(PID.TID 0000.0001)                       cg2d_iters =    78
(PID.TID 0000.0001)                         cg2d_res =    7.42543188474216E-12
(PID.TID 0000.0001) // =======================================================
(PID.TID 0000.0001) // Begin MONITOR dynamic field statistics
(PID.TID 0000.0001) // =======================================================
(PID.TID 0000.0001) %MON time_tsnumber                =                    31
(PID.TID 0000.0001) %MON time_secondsf                =   3.7200000000000E+04
(PID.TID 0000.0001) %MON dynstat_eta_max              =   3.9925938478066E-04
(PID.TID 0000.0001) %MON dynstat_eta_min              =  -4.1624608009913E-04
(PID.TID 0000.0001) %MON dynstat_eta_mean             =   8.0167726523861E-18
(PID.TID 0000.0001) %MON dynstat_eta_sd               =   3.7337538871552E-04
(PID.TID 0000.0001) %MON dynstat_eta_del2             =   3.8788237006758E-06
(PID.TID 0000.0001) %MON dynstat_uvel_max             =   3.6743754796588E-02
(PID.TID 0000.0001) %MON dynstat_uvel_min             =  -3.6746964121237E-02
(PID.TID 0000.0001) %MON dynstat_uvel_mean            =  -9.1487351736654E-07
(PID.TID 0000.0001) %MON dynstat_uvel_sd              =   8.7363186089366E-03
(PID.TID 0000.0001) %MON dynstat_uvel_del2            =   2.4251473421745E-04
(PID.TID 0000.0001) %MON dynstat_vvel_max             =   1.4004275737475E-02
(PID.TID 0000.0001) %MON dynstat_vvel_min             =  -1.4002023547913E-02
(PID.TID 0000.0001) %MON dynstat_vvel_mean            =   3.2932812374976E-10
(PID.TID 0000.0001) %MON dynstat_vvel_sd              =   2.7006131096350E-03
(PID.TID 0000.0001) %MON dynstat_vvel_del2            =   1.3502396020512E-04
(PID.TID 0000.0001) %MON dynstat_wvel_max             =   2.8686716030277E-04
(PID.TID 0000.0001) %MON dynstat_wvel_min             =  -2.8691950788751E-04
(PID.TID 0000.0001) %MON dynstat_wvel_mean            =   2.1284690315076E-22
(PID.TID 0000.0001) %MON dynstat_wvel_sd              =   8.5792415998710E-05
(PID.TID 0000.0001) %MON dynstat_wvel_del2            =   8.3869136114823E-06
(PID.TID 0000.0001) %MON dynstat_theta_max            =   1.7020391872705E+01
(PID.TID 0000.0001) %MON dynstat_theta_min            =   1.6979608188987E+01
(PID.TID 0000.0001) %MON dynstat_theta_mean           =   1.6999999916849E+01
(PID.TID 0000.0001) %MON dynstat_theta_sd             =   1.8681169000539E-02
(PID.TID 0000.0001) %MON dynstat_theta_del2           =   1.9648945906276E-04
(PID.TID 0000.0001) %MON dynstat_salt_max             =   1.7020387109310E+01
(PID.TID 0000.0001) %MON dynstat_salt_min             =   1.6979612982852E+01
(PID.TID 0000.0001) %MON dynstat_salt_mean            =   1.7000000005831E+01
(PID.TID 0000.0001) %MON dynstat_salt_sd              =   1.8684714924849E-02
(PID.TID 0000.0001) %MON dynstat_salt_del2            =   1.9044913741179E-04
(PID.TID 0000.0001) %MON advcfl_uvel_max              =   4.4096356945484E-02
(PID.TID 0000.0001) %MON advcfl_vvel_max              =   1.6805130884969E-02
(PID.TID 0000.0001) %MON advcfl_wvel_max              =   6.8860681893002E-02
(PID.TID 0000.0001) %MON advcfl_W_hf_max              =   6.8860681893002E-02
(PID.TID 0000.0001) %MON pe_b_mean                    =   3.4190101615349E-09
(PID.TID 0000.0001) %MON ke_max                       =   7.6104038735196E-04
(PID.TID 0000.0001) %MON ke_mean                      =   4.1662421197530E-05
(PID.TID 0000.0001) %MON ke_vol                       =   2.5000000000000E+11
(PID.TID 0000.0001) %MON vort_r_min                   =  -1.0434177594119E-05
(PID.TID 0000.0001) %MON vort_r_max                   =   1.1364378312218E-05
(PID.TID 0000.0001) %MON vort_a_mean                  =   7.2900000000000E-05
(PID.TID 0000.0001) %MON vort_a_sd                    =   3.0099382744865E-06
(PID.TID 0000.0001) %MON vort_p_mean                  =   7.7363265306123E-05
(PID.TID 0000.0001) %MON vort_p_sd                    =   3.1077478773750E-05
(PID.TID 0000.0001) %MON surfExpan_theta_mean         =   8.6428052983177E-13
(PID.TID 0000.0001) %MON surfExpan_salt_mean          =  -2.2845008354371E-18
(PID.TID 0000.0001) // =======================================================
(PID.TID 0000.0001) // End MONITOR dynamic field statistics
(PID.TID 0000.0001) // =======================================================
 cg2d: Sum(rhs),rhsMax =  -2.34931974048280E-14  7.58158386907269E-04
(PID.TID 0000.0001)                    cg2d_init_res =    2.22602450309135E-01
(PID.TID 0000.0001)                       cg2d_iters =    78
(PID.TID 0000.0001)                         cg2d_res =    7.29820863430621E-12
(PID.TID 0000.0001) // =======================================================
(PID.TID 0000.0001) // Begin MONITOR dynamic field statistics
(PID.TID 0000.0001) // =======================================================
(PID.TID 0000.0001) %MON time_tsnumber                =                    32
(PID.TID 0000.0001) %MON time_secondsf                =   3.8400000000000E+04
(PID.TID 0000.0001) %MON dynstat_eta_max              =   3.9878879666312E-04
(PID.TID 0000.0001) %MON dynstat_eta_min              =  -4.1671669406810E-04
(PID.TID 0000.0001) %MON dynstat_eta_mean             =   5.4436849461492E-18
(PID.TID 0000.0001) %MON dynstat_eta_sd               =   3.7338920857018E-04
(PID.TID 0000.0001) %MON dynstat_eta_del2             =   3.8855861373759E-06
(PID.TID 0000.0001) %MON dynstat_uvel_max             =   3.7317777552993E-02
(PID.TID 0000.0001) %MON dynstat_uvel_min             =  -3.7320722804030E-02
(PID.TID 0000.0001) %MON dynstat_uvel_mean            =  -9.1490604727291E-07
(PID.TID 0000.0001) %MON dynstat_uvel_sd              =   8.8842033091297E-03
(PID.TID 0000.0001) %MON dynstat_uvel_del2            =   2.4691504976941E-04
(PID.TID 0000.0001) %MON dynstat_vvel_max             =   1.2741917020194E-02
(PID.TID 0000.0001) %MON dynstat_vvel_min             =  -1.2739735748394E-02
(PID.TID 0000.0001) %MON dynstat_vvel_mean            =   3.0367760906063E-10
(PID.TID 0000.0001) %MON dynstat_vvel_sd              =   2.3888001535362E-03
(PID.TID 0000.0001) %MON dynstat_vvel_del2            =   1.3095223132933E-04
(PID.TID 0000.0001) %MON dynstat_wvel_max             =   2.6926595005432E-04
(PID.TID 0000.0001) %MON dynstat_wvel_min             =  -2.6931798873604E-04
(PID.TID 0000.0001) %MON dynstat_wvel_mean            =   3.7256389961034E-22
(PID.TID 0000.0001) %MON dynstat_wvel_sd              =   8.0238685705330E-05
(PID.TID 0000.0001) %MON dynstat_wvel_del2            =   8.1969399449170E-06
(PID.TID 0000.0001) %MON dynstat_theta_max            =   1.7020391872704E+01
(PID.TID 0000.0001) %MON dynstat_theta_min            =   1.6979608188987E+01
(PID.TID 0000.0001) %MON dynstat_theta_mean           =   1.6999999916844E+01
(PID.TID 0000.0001) %MON dynstat_theta_sd             =   1.8681051272980E-02
(PID.TID 0000.0001) %MON dynstat_theta_del2           =   1.9638557845839E-04
(PID.TID 0000.0001) %MON dynstat_salt_max             =   1.7020387109310E+01
(PID.TID 0000.0001) %MON dynstat_salt_min             =   1.6979612982852E+01
(PID.TID 0000.0001) %MON dynstat_salt_mean            =   1.7000000005831E+01
(PID.TID 0000.0001) %MON dynstat_salt_sd              =   1.8684671775446E-02
(PID.TID 0000.0001) %MON dynstat_salt_del2            =   1.9057903279272E-04
(PID.TID 0000.0001) %MON advcfl_uvel_max              =   4.4784867364836E-02
(PID.TID 0000.0001) %MON advcfl_vvel_max              =   1.5290300424233E-02
(PID.TID 0000.0001) %MON advcfl_wvel_max              =   6.4636317296651E-02
(PID.TID 0000.0001) %MON advcfl_W_hf_max              =   6.4636317296651E-02
(PID.TID 0000.0001) %MON pe_b_mean                    =   3.4192632639052E-09
(PID.TID 0000.0001) %MON ke_max                       =   7.6631653561066E-04
(PID.TID 0000.0001) %MON ke_mean                      =   4.2203590400799E-05
(PID.TID 0000.0001) %MON ke_vol                       =   2.5000000000000E+11
(PID.TID 0000.0001) %MON vort_r_min                   =  -1.0594007317191E-05
(PID.TID 0000.0001) %MON vort_r_max                   =   1.1592713811409E-05
(PID.TID 0000.0001) %MON vort_a_mean                  =   7.2900000000000E-05
(PID.TID 0000.0001) %MON vort_a_sd                    =   3.0610948130867E-06
(PID.TID 0000.0001) %MON vort_p_mean                  =   7.7363265306123E-05
(PID.TID 0000.0001) %MON vort_p_sd                    =   3.1082780888399E-05
(PID.TID 0000.0001) %MON surfExpan_theta_mean         =   8.1067470929582E-13
(PID.TID 0000.0001) %MON surfExpan_salt_mean          =  -2.9704302210576E-17
(PID.TID 0000.0001) // =======================================================
(PID.TID 0000.0001) // End MONITOR dynamic field statistics
(PID.TID 0000.0001) // =======================================================
 cg2d: Sum(rhs),rhsMax =   1.27870316331963E-13  7.64343563655339E-04
(PID.TID 0000.0001)                    cg2d_init_res =    2.01821392458187E-01
(PID.TID 0000.0001)                       cg2d_iters =    78
(PID.TID 0000.0001)                         cg2d_res =    7.15236896922259E-12
(PID.TID 0000.0001) // =======================================================
(PID.TID 0000.0001) // Begin MONITOR dynamic field statistics
(PID.TID 0000.0001) // =======================================================
(PID.TID 0000.0001) %MON time_tsnumber                =                    33
(PID.TID 0000.0001) %MON time_secondsf                =   3.9600000000000E+04
(PID.TID 0000.0001) %MON dynstat_eta_max              =   3.9837407781940E-04
(PID.TID 0000.0001) %MON dynstat_eta_min              =  -4.1713143875243E-04
(PID.TID 0000.0001) %MON dynstat_eta_mean             =   2.5062923232899E-17
(PID.TID 0000.0001) %MON dynstat_eta_sd               =   3.7340308347791E-04
(PID.TID 0000.0001) %MON dynstat_eta_del2             =   3.8915553134055E-06
(PID.TID 0000.0001) %MON dynstat_uvel_max             =   3.7775913718830E-02
(PID.TID 0000.0001) %MON dynstat_uvel_min             =  -3.7778600716904E-02
(PID.TID 0000.0001) %MON dynstat_uvel_mean            =  -9.1493593701871E-07
(PID.TID 0000.0001) %MON dynstat_uvel_sd              =   9.0018170747077E-03
(PID.TID 0000.0001) %MON dynstat_uvel_del2            =   2.5057458586684E-04
(PID.TID 0000.0001) %MON dynstat_vvel_max             =   1.1444905893080E-02
(PID.TID 0000.0001) %MON dynstat_vvel_min             =  -1.1442794069010E-02
(PID.TID 0000.0001) %MON dynstat_vvel_mean            =   2.7417578836380E-10
(PID.TID 0000.0001) %MON dynstat_vvel_sd              =   2.0790891346845E-03
(PID.TID 0000.0001) %MON dynstat_vvel_del2            =   1.2734742980846E-04
(PID.TID 0000.0001) %MON dynstat_wvel_max             =   2.5117428852869E-04
(PID.TID 0000.0001) %MON dynstat_wvel_min             =  -2.5122614879676E-04
(PID.TID 0000.0001) %MON dynstat_wvel_mean            =  -9.2453544914943E-22
(PID.TID 0000.0001) %MON dynstat_wvel_sd              =   7.4716287354107E-05
(PID.TID 0000.0001) %MON dynstat_wvel_del2            =   8.0125652285730E-06
(PID.TID 0000.0001) %MON dynstat_theta_max            =   1.7020391872704E+01
(PID.TID 0000.0001) %MON dynstat_theta_min            =   1.6979608188987E+01
(PID.TID 0000.0001) %MON dynstat_theta_mean           =   1.6999999916840E+01
(PID.TID 0000.0001) %MON dynstat_theta_sd             =   1.8680944565645E-02
(PID.TID 0000.0001) %MON dynstat_theta_del2           =   1.9628221667695E-04
(PID.TID 0000.0001) %MON dynstat_salt_max             =   1.7020387109310E+01
(PID.TID 0000.0001) %MON dynstat_salt_min             =   1.6979612982852E+01
(PID.TID 0000.0001) %MON dynstat_salt_mean            =   1.7000000005831E+01
(PID.TID 0000.0001) %MON dynstat_salt_sd              =   1.8684628195533E-02
(PID.TID 0000.0001) %MON dynstat_salt_del2            =   1.9073251512217E-04
(PID.TID 0000.0001) %MON advcfl_uvel_max              =   4.5334320860285E-02
(PID.TID 0000.0001) %MON advcfl_vvel_max              =   1.3733887071696E-02
(PID.TID 0000.0001) %MON advcfl_wvel_max              =   6.0294275711222E-02
(PID.TID 0000.0001) %MON advcfl_W_hf_max              =   6.0294275711222E-02
(PID.TID 0000.0001) %MON pe_b_mean                    =   3.4195173839637E-09
(PID.TID 0000.0001) %MON ke_max                       =   7.6885425487431E-04
(PID.TID 0000.0001) %MON ke_mean                      =   4.2591209324186E-05
(PID.TID 0000.0001) %MON ke_vol                       =   2.5000000000000E+11
(PID.TID 0000.0001) %MON vort_r_min                   =  -1.0726813045535E-05
(PID.TID 0000.0001) %MON vort_r_max                   =   1.1785957767557E-05
(PID.TID 0000.0001) %MON vort_a_mean                  =   7.2899999999999E-05
(PID.TID 0000.0001) %MON vort_a_sd                    =   3.1030932041449E-06
(PID.TID 0000.0001) %MON vort_p_mean                  =   7.7363265306122E-05
(PID.TID 0000.0001) %MON vort_p_sd                    =   3.1087199902999E-05
(PID.TID 0000.0001) %MON surfExpan_theta_mean         =   7.3742597358427E-13
(PID.TID 0000.0001) %MON surfExpan_salt_mean          =  -5.7524154393768E-17
(PID.TID 0000.0001) // =======================================================
(PID.TID 0000.0001) // End MONITOR dynamic field statistics
(PID.TID 0000.0001) // =======================================================
 cg2d: Sum(rhs),rhsMax =  -4.33654306040976E-14  7.70177375107024E-04
(PID.TID 0000.0001)                    cg2d_init_res =    1.79929413952493E-01
(PID.TID 0000.0001)                       cg2d_iters =    78
(PID.TID 0000.0001)                         cg2d_res =    6.96056028268851E-12
(PID.TID 0000.0001) // =======================================================
(PID.TID 0000.0001) // Begin MONITOR dynamic field statistics
(PID.TID 0000.0001) // =======================================================
(PID.TID 0000.0001) %MON time_tsnumber                =                    34
(PID.TID 0000.0001) %MON time_secondsf                =   4.0800000000000E+04
(PID.TID 0000.0001) %MON dynstat_eta_max              =   3.9802086462868E-04
(PID.TID 0000.0001) %MON dynstat_eta_min              =  -4.1748467842715E-04
(PID.TID 0000.0001) %MON dynstat_eta_mean             =   3.0020883985404E-17
(PID.TID 0000.0001) %MON dynstat_eta_sd               =   3.7341606734181E-04
(PID.TID 0000.0001) %MON dynstat_eta_del2             =   3.8966890622745E-06
(PID.TID 0000.0001) %MON dynstat_uvel_max             =   3.8117413836647E-02
(PID.TID 0000.0001) %MON dynstat_uvel_min             =  -3.8119849177407E-02
(PID.TID 0000.0001) %MON dynstat_uvel_mean            =  -9.1496248392992E-07
(PID.TID 0000.0001) %MON dynstat_uvel_sd              =   9.0886225422616E-03
(PID.TID 0000.0001) %MON dynstat_uvel_del2            =   2.5348687170519E-04
(PID.TID 0000.0001) %MON dynstat_vvel_max             =   1.0123678744124E-02
(PID.TID 0000.0001) %MON dynstat_vvel_min             =  -1.0121631395979E-02
(PID.TID 0000.0001) %MON dynstat_vvel_mean            =   2.4138053840974E-10
(PID.TID 0000.0001) %MON dynstat_vvel_sd              =   1.7807338919628E-03
(PID.TID 0000.0001) %MON dynstat_vvel_del2            =   1.2384540545128E-04
(PID.TID 0000.0001) %MON dynstat_wvel_max             =   2.3274144850803E-04
(PID.TID 0000.0001) %MON dynstat_wvel_min             =  -2.3279348872483E-04
(PID.TID 0000.0001) %MON dynstat_wvel_mean            =  -9.6039443992109E-24
(PID.TID 0000.0001) %MON dynstat_wvel_sd              =   6.9324644778458E-05
(PID.TID 0000.0001) %MON dynstat_wvel_del2            =   7.8358826551823E-06
(PID.TID 0000.0001) %MON dynstat_theta_max            =   1.7020391872704E+01
(PID.TID 0000.0001) %MON dynstat_theta_min            =   1.6979608188987E+01
(PID.TID 0000.0001) %MON dynstat_theta_mean           =   1.6999999916836E+01
(PID.TID 0000.0001) %MON dynstat_theta_sd             =   1.8680849556855E-02
(PID.TID 0000.0001) %MON dynstat_theta_del2           =   1.9618322373728E-04
(PID.TID 0000.0001) %MON dynstat_salt_max             =   1.7020387109310E+01
(PID.TID 0000.0001) %MON dynstat_salt_min             =   1.6979612982851E+01
(PID.TID 0000.0001) %MON dynstat_salt_mean            =   1.7000000005831E+01
(PID.TID 0000.0001) %MON dynstat_salt_sd              =   1.8684584354407E-02
(PID.TID 0000.0001) %MON dynstat_salt_del2            =   1.9090093199688E-04
(PID.TID 0000.0001) %MON advcfl_uvel_max              =   4.5743819012888E-02
(PID.TID 0000.0001) %MON advcfl_vvel_max              =   1.2148414492949E-02
(PID.TID 0000.0001) %MON advcfl_wvel_max              =   5.5870437293958E-02
(PID.TID 0000.0001) %MON advcfl_W_hf_max              =   5.5870437293958E-02
(PID.TID 0000.0001) %MON pe_b_mean                    =   3.4197551930348E-09
(PID.TID 0000.0001) %MON ke_max                       =   7.6868797797629E-04
(PID.TID 0000.0001) %MON ke_mean                      =   4.2823616609544E-05
(PID.TID 0000.0001) %MON ke_vol                       =   2.5000000000000E+11
(PID.TID 0000.0001) %MON vort_r_min                   =  -1.0832819804213E-05
(PID.TID 0000.0001) %MON vort_r_max                   =   1.1943718311981E-05
(PID.TID 0000.0001) %MON vort_a_mean                  =   7.2900000000000E-05
(PID.TID 0000.0001) %MON vort_a_sd                    =   3.1358744833781E-06
(PID.TID 0000.0001) %MON vort_p_mean                  =   7.7363265306123E-05
(PID.TID 0000.0001) %MON vort_p_sd                    =   3.1090690499190E-05
(PID.TID 0000.0001) %MON surfExpan_theta_mean         =   6.4690874151031E-13
(PID.TID 0000.0001) %MON surfExpan_salt_mean          =  -8.1940011301376E-17
(PID.TID 0000.0001) // =======================================================
(PID.TID 0000.0001) // End MONITOR dynamic field statistics
(PID.TID 0000.0001) // =======================================================
 cg2d: Sum(rhs),rhsMax =  -1.92631663658432E-13  7.75646801196432E-04
(PID.TID 0000.0001)                    cg2d_init_res =    1.57391980906692E-01
(PID.TID 0000.0001)                       cg2d_iters =    78
(PID.TID 0000.0001)                         cg2d_res =    6.73427633181820E-12
(PID.TID 0000.0001) // =======================================================
(PID.TID 0000.0001) // Begin MONITOR dynamic field statistics
(PID.TID 0000.0001) // =======================================================
(PID.TID 0000.0001) %MON time_tsnumber                =                    35
(PID.TID 0000.0001) %MON time_secondsf                =   4.2000000000000E+04
(PID.TID 0000.0001) %MON dynstat_eta_max              =   3.9773351115545E-04
(PID.TID 0000.0001) %MON dynstat_eta_min              =  -4.1777205893348E-04
(PID.TID 0000.0001) %MON dynstat_eta_mean             =   4.0583563973295E-17
(PID.TID 0000.0001) %MON dynstat_eta_sd               =   3.7342731275804E-04
(PID.TID 0000.0001) %MON dynstat_eta_del2             =   3.9009656850736E-06
(PID.TID 0000.0001) %MON dynstat_uvel_max             =   3.8342318960686E-02
(PID.TID 0000.0001) %MON dynstat_uvel_min             =  -3.8344510003985E-02
(PID.TID 0000.0001) %MON dynstat_uvel_mean            =  -9.1498510090964E-07
(PID.TID 0000.0001) %MON dynstat_uvel_sd              =   9.1443196067840E-03
(PID.TID 0000.0001) %MON dynstat_uvel_del2            =   2.5565153071896E-04
(PID.TID 0000.0001) %MON dynstat_vvel_max             =   8.7886431157497E-03
(PID.TID 0000.0001) %MON dynstat_vvel_min             =  -8.7866398493336E-03
(PID.TID 0000.0001) %MON dynstat_vvel_mean            =   2.0581316764773E-10
(PID.TID 0000.0001) %MON dynstat_vvel_sd              =   1.5076323379557E-03
(PID.TID 0000.0001) %MON dynstat_vvel_del2            =   1.2045838184803E-04
(PID.TID 0000.0001) %MON dynstat_wvel_max             =   2.1415611152216E-04
(PID.TID 0000.0001) %MON dynstat_wvel_min             =  -2.1454423719710E-04
(PID.TID 0000.0001) %MON dynstat_wvel_mean            =  -9.3234088966686E-22
(PID.TID 0000.0001) %MON dynstat_wvel_sd              =   6.4173355273334E-05
(PID.TID 0000.0001) %MON dynstat_wvel_del2            =   7.6708657504717E-06
(PID.TID 0000.0001) %MON dynstat_theta_max            =   1.7020391872704E+01
(PID.TID 0000.0001) %MON dynstat_theta_min            =   1.6979608188987E+01
(PID.TID 0000.0001) %MON dynstat_theta_mean           =   1.6999999916833E+01
(PID.TID 0000.0001) %MON dynstat_theta_sd             =   1.8680767016812E-02
(PID.TID 0000.0001) %MON dynstat_theta_del2           =   1.9609197452602E-04
(PID.TID 0000.0001) %MON dynstat_salt_max             =   1.7020387109310E+01
(PID.TID 0000.0001) %MON dynstat_salt_min             =   1.6979612982851E+01
(PID.TID 0000.0001) %MON dynstat_salt_mean            =   1.7000000005831E+01
(PID.TID 0000.0001) %MON dynstat_salt_sd              =   1.8684540433077E-02
(PID.TID 0000.0001) %MON dynstat_salt_del2            =   1.9108167319143E-04
(PID.TID 0000.0001) %MON advcfl_uvel_max              =   4.6013412004783E-02
(PID.TID 0000.0001) %MON advcfl_vvel_max              =   1.0546371738900E-02
(PID.TID 0000.0001) %MON advcfl_wvel_max              =   5.1490616927304E-02
(PID.TID 0000.0001) %MON advcfl_W_hf_max              =   5.1490616927304E-02
(PID.TID 0000.0001) %MON pe_b_mean                    =   3.4199611678333E-09
(PID.TID 0000.0001) %MON ke_max                       =   7.6586791002883E-04
(PID.TID 0000.0001) %MON ke_mean                      =   4.2900309482002E-05
(PID.TID 0000.0001) %MON ke_vol                       =   2.5000000000000E+11
(PID.TID 0000.0001) %MON vort_r_min                   =  -1.0912412112044E-05
(PID.TID 0000.0001) %MON vort_r_max                   =   1.2065909947364E-05
(PID.TID 0000.0001) %MON vort_a_mean                  =   7.2900000000000E-05
(PID.TID 0000.0001) %MON vort_a_sd                    =   3.1594507420496E-06
(PID.TID 0000.0001) %MON vort_p_mean                  =   7.7363265306122E-05
(PID.TID 0000.0001) %MON vort_p_sd                    =   3.1093223358185E-05
(PID.TID 0000.0001) %MON surfExpan_theta_mean         =   5.4216774117705E-13
(PID.TID 0000.0001) %MON surfExpan_salt_mean          =  -1.1137580973600E-16
(PID.TID 0000.0001) // =======================================================
(PID.TID 0000.0001) // End MONITOR dynamic field statistics
(PID.TID 0000.0001) // =======================================================
 cg2d: Sum(rhs),rhsMax =  -2.73679896019979E-13  7.80734740405401E-04
(PID.TID 0000.0001)                    cg2d_init_res =    1.34662624801627E-01
(PID.TID 0000.0001)                       cg2d_iters =    78
(PID.TID 0000.0001)                         cg2d_res =    6.44801842480314E-12
(PID.TID 0000.0001) // =======================================================
(PID.TID 0000.0001) // Begin MONITOR dynamic field statistics
(PID.TID 0000.0001) // =======================================================
(PID.TID 0000.0001) %MON time_tsnumber                =                    36
(PID.TID 0000.0001) %MON time_secondsf                =   4.3200000000000E+04
(PID.TID 0000.0001) %MON dynstat_eta_max              =   3.9751500287949E-04
(PID.TID 0000.0001) %MON dynstat_eta_min              =  -4.1799059464902E-04
(PID.TID 0000.0001) %MON dynstat_eta_mean             =   4.3164112190075E-17
(PID.TID 0000.0001) %MON dynstat_eta_sd               =   3.7343612379795E-04
(PID.TID 0000.0001) %MON dynstat_eta_del2             =   3.9043830880622E-06
(PID.TID 0000.0001) %MON dynstat_uvel_max             =   3.8451439257942E-02
(PID.TID 0000.0001) %MON dynstat_uvel_min             =  -3.8453394816670E-02
(PID.TID 0000.0001) %MON dynstat_uvel_mean            =  -9.1500336020916E-07
(PID.TID 0000.0001) %MON dynstat_uvel_sd              =   9.1688459143194E-03
(PID.TID 0000.0001) %MON dynstat_uvel_del2            =   2.5707403564958E-04
(PID.TID 0000.0001) %MON dynstat_vvel_max             =   7.4500562907162E-03
(PID.TID 0000.0001) %MON dynstat_vvel_min             =  -7.4480973883507E-03
(PID.TID 0000.0001) %MON dynstat_vvel_mean            =   1.6795024957062E-10
(PID.TID 0000.0001) %MON dynstat_vvel_sd              =   1.2813275389600E-03
(PID.TID 0000.0001) %MON dynstat_vvel_del2            =   1.1760676865949E-04
(PID.TID 0000.0001) %MON dynstat_wvel_max             =   1.9950094264361E-04
(PID.TID 0000.0001) %MON dynstat_wvel_min             =  -1.9987384971501E-04
(PID.TID 0000.0001) %MON dynstat_wvel_mean            =   4.6643833467332E-22
(PID.TID 0000.0001) %MON dynstat_wvel_sd              =   5.9382549444920E-05
(PID.TID 0000.0001) %MON dynstat_wvel_del2            =   7.5169798542299E-06
(PID.TID 0000.0001) %MON dynstat_theta_max            =   1.7020391872703E+01
(PID.TID 0000.0001) %MON dynstat_theta_min            =   1.6979608188987E+01
(PID.TID 0000.0001) %MON dynstat_theta_mean           =   1.6999999916830E+01
(PID.TID 0000.0001) %MON dynstat_theta_sd             =   1.8680697292100E-02
(PID.TID 0000.0001) %MON dynstat_theta_del2           =   1.9601136955305E-04
(PID.TID 0000.0001) %MON dynstat_salt_max             =   1.7020387109310E+01
(PID.TID 0000.0001) %MON dynstat_salt_min             =   1.6979612982851E+01
(PID.TID 0000.0001) %MON dynstat_salt_mean            =   1.7000000005831E+01
(PID.TID 0000.0001) %MON dynstat_salt_sd              =   1.8684496590717E-02
(PID.TID 0000.0001) %MON dynstat_salt_del2            =   1.9127416130550E-04
(PID.TID 0000.0001) %MON advcfl_uvel_max              =   4.6144073780004E-02
(PID.TID 0000.0001) %MON advcfl_vvel_max              =   8.9400675488595E-03
(PID.TID 0000.0001) %MON advcfl_wvel_max              =   4.7969723931602E-02
(PID.TID 0000.0001) %MON advcfl_W_hf_max              =   4.7969723931602E-02
(PID.TID 0000.0001) %MON pe_b_mean                    =   3.4201225581163E-09
(PID.TID 0000.0001) %MON ke_max                       =   7.6045875937954E-04
(PID.TID 0000.0001) %MON ke_mean                      =   4.2821932244689E-05
(PID.TID 0000.0001) %MON ke_vol                       =   2.5000000000000E+11
(PID.TID 0000.0001) %MON vort_r_min                   =  -1.0966117475928E-05
(PID.TID 0000.0001) %MON vort_r_max                   =   1.2152742519519E-05
(PID.TID 0000.0001) %MON vort_a_mean                  =   7.2900000000000E-05
(PID.TID 0000.0001) %MON vort_a_sd                    =   3.1739037315193E-06
(PID.TID 0000.0001) %MON vort_p_mean                  =   7.7363265306123E-05
(PID.TID 0000.0001) %MON vort_p_sd                    =   3.1094785351399E-05
(PID.TID 0000.0001) %MON surfExpan_theta_mean         =   4.2676345676999E-13
(PID.TID 0000.0001) %MON surfExpan_salt_mean          =  -1.3642915805151E-16
(PID.TID 0000.0001) // =======================================================
(PID.TID 0000.0001) // End MONITOR dynamic field statistics
(PID.TID 0000.0001) // =======================================================
(PID.TID 0000.0001) %CHECKPOINT        36 0000000036
 cg2d: Sum(rhs),rhsMax =  -2.20451261412347E-13  7.85430053096959E-04
(PID.TID 0000.0001)                    cg2d_init_res =    1.12226366144886E-01
(PID.TID 0000.0001)                       cg2d_iters =    77
(PID.TID 0000.0001)                         cg2d_res =    9.72844077364166E-12
(PID.TID 0000.0001) // =======================================================
(PID.TID 0000.0001) // Begin MONITOR dynamic field statistics
(PID.TID 0000.0001) // =======================================================
(PID.TID 0000.0001) %MON time_tsnumber                =                    37
(PID.TID 0000.0001) %MON time_secondsf                =   4.4400000000000E+04
(PID.TID 0000.0001) %MON dynstat_eta_max              =   3.9736690688806E-04
(PID.TID 0000.0001) %MON dynstat_eta_min              =  -4.1813871900350E-04
(PID.TID 0000.0001) %MON dynstat_eta_mean             =   5.0992884128576E-17
(PID.TID 0000.0001) %MON dynstat_eta_sd               =   3.7344198485428E-04
(PID.TID 0000.0001) %MON dynstat_eta_del2             =   3.9069586672339E-06
(PID.TID 0000.0001) %MON dynstat_uvel_max             =   3.8446332662027E-02
(PID.TID 0000.0001) %MON dynstat_uvel_min             =  -3.8448130582814E-02
(PID.TID 0000.0001) %MON dynstat_uvel_mean            =  -9.1501701847976E-07
(PID.TID 0000.0001) %MON dynstat_uvel_sd              =   9.1623757429296E-03
(PID.TID 0000.0001) %MON dynstat_uvel_del2            =   2.5776567853086E-04
(PID.TID 0000.0001) %MON dynstat_vvel_max             =   6.1180121600089E-03
(PID.TID 0000.0001) %MON dynstat_vvel_min             =  -6.1160975307317E-03
(PID.TID 0000.0001) %MON dynstat_vvel_mean            =   1.2855987233658E-10
(PID.TID 0000.0001) %MON dynstat_vvel_sd              =   1.1325602800910E-03
(PID.TID 0000.0001) %MON dynstat_vvel_del2            =   1.1559059887607E-04
(PID.TID 0000.0001) %MON dynstat_wvel_max             =   1.8505245999204E-04
(PID.TID 0000.0001) %MON dynstat_wvel_min             =  -1.8541045757330E-04
(PID.TID 0000.0001) %MON dynstat_wvel_mean            =   4.4883598121700E-23
(PID.TID 0000.0001) %MON dynstat_wvel_sd              =   5.5081181880207E-05
(PID.TID 0000.0001) %MON dynstat_wvel_del2            =   7.3761920391827E-06
(PID.TID 0000.0001) %MON dynstat_theta_max            =   1.7020391872703E+01
(PID.TID 0000.0001) %MON dynstat_theta_min            =   1.6979608188987E+01
(PID.TID 0000.0001) %MON dynstat_theta_mean           =   1.6999999916828E+01
(PID.TID 0000.0001) %MON dynstat_theta_sd             =   1.8680640358831E-02
(PID.TID 0000.0001) %MON dynstat_theta_del2           =   1.9594413310955E-04
(PID.TID 0000.0001) %MON dynstat_salt_max             =   1.7020387109310E+01
(PID.TID 0000.0001) %MON dynstat_salt_min             =   1.6979612982851E+01
(PID.TID 0000.0001) %MON dynstat_salt_mean            =   1.7000000005831E+01
(PID.TID 0000.0001) %MON dynstat_salt_sd              =   1.8684452966795E-02
(PID.TID 0000.0001) %MON dynstat_salt_del2            =   1.9146913374500E-04
(PID.TID 0000.0001) %MON advcfl_uvel_max              =   4.6137756699377E-02
(PID.TID 0000.0001) %MON advcfl_vvel_max              =   7.3416145920107E-03
(PID.TID 0000.0001) %MON advcfl_wvel_max              =   4.4498509817593E-02
(PID.TID 0000.0001) %MON advcfl_W_hf_max              =   4.4498509817593E-02
(PID.TID 0000.0001) %MON pe_b_mean                    =   3.4202299161730E-09
(PID.TID 0000.0001) %MON ke_max                       =   7.5253865243411E-04
(PID.TID 0000.0001) %MON ke_mean                      =   4.2590257584200E-05
(PID.TID 0000.0001) %MON ke_vol                       =   2.5000000000000E+11
(PID.TID 0000.0001) %MON vort_r_min                   =  -1.0994597319298E-05
(PID.TID 0000.0001) %MON vort_r_max                   =   1.2204707149538E-05
(PID.TID 0000.0001) %MON vort_a_mean                  =   7.2900000000000E-05
(PID.TID 0000.0001) %MON vort_a_sd                    =   3.1793829665243E-06
(PID.TID 0000.0001) %MON vort_p_mean                  =   7.7363265306122E-05
(PID.TID 0000.0001) %MON vort_p_sd                    =   3.1095379349556E-05
(PID.TID 0000.0001) %MON surfExpan_theta_mean         =   3.0441467191740E-13
(PID.TID 0000.0001) %MON surfExpan_salt_mean          =  -1.6041752881959E-16
(PID.TID 0000.0001) // =======================================================
(PID.TID 0000.0001) // End MONITOR dynamic field statistics
(PID.TID 0000.0001) // =======================================================
 cg2d: Sum(rhs),rhsMax =  -4.38854573341085E-13  7.89725680514862E-04
(PID.TID 0000.0001)                    cg2d_init_res =    9.06425759137086E-02
(PID.TID 0000.0001)                       cg2d_iters =    77
(PID.TID 0000.0001)                         cg2d_res =    9.19306049503189E-12
(PID.TID 0000.0001) // =======================================================
(PID.TID 0000.0001) // Begin MONITOR dynamic field statistics
(PID.TID 0000.0001) // =======================================================
(PID.TID 0000.0001) %MON time_tsnumber                =                    38
(PID.TID 0000.0001) %MON time_secondsf                =   4.5600000000000E+04
(PID.TID 0000.0001) %MON dynstat_eta_max              =   3.9728935845308E-04
(PID.TID 0000.0001) %MON dynstat_eta_min              =  -4.1821629647793E-04
(PID.TID 0000.0001) %MON dynstat_eta_mean             =   5.7091669102838E-17
(PID.TID 0000.0001) %MON dynstat_eta_sd               =   3.7344458716628E-04
(PID.TID 0000.0001) %MON dynstat_eta_del2             =   3.9087310908045E-06
(PID.TID 0000.0001) %MON dynstat_uvel_max             =   3.8329279738172E-02
(PID.TID 0000.0001) %MON dynstat_uvel_min             =  -3.8331017263251E-02
(PID.TID 0000.0001) %MON dynstat_uvel_mean            =  -9.1502598719751E-07
(PID.TID 0000.0001) %MON dynstat_uvel_sd              =   9.1253173092994E-03
(PID.TID 0000.0001) %MON dynstat_uvel_del2            =   2.5774317480837E-04
(PID.TID 0000.0001) %MON dynstat_vvel_max             =   4.8023551428423E-03
(PID.TID 0000.0001) %MON dynstat_vvel_min             =  -4.8004850007722E-03
(PID.TID 0000.0001) %MON dynstat_vvel_mean            =   8.8353562444440E-11
(PID.TID 0000.0001) %MON dynstat_vvel_sd              =   1.0920659745858E-03
(PID.TID 0000.0001) %MON dynstat_vvel_del2            =   1.1406756564051E-04
(PID.TID 0000.0001) %MON dynstat_wvel_max             =   1.7090975175187E-04
(PID.TID 0000.0001) %MON dynstat_wvel_min             =  -1.7125319473023E-04
(PID.TID 0000.0001) %MON dynstat_wvel_mean            =  -8.1555333988425E-22
(PID.TID 0000.0001) %MON dynstat_wvel_sd              =   5.1401168842919E-05
(PID.TID 0000.0001) %MON dynstat_wvel_del2            =   7.2458307382512E-06
(PID.TID 0000.0001) %MON dynstat_theta_max            =   1.7020391872703E+01
(PID.TID 0000.0001) %MON dynstat_theta_min            =   1.6979608188987E+01
(PID.TID 0000.0001) %MON dynstat_theta_mean           =   1.6999999916827E+01
(PID.TID 0000.0001) %MON dynstat_theta_sd             =   1.8680595751617E-02
(PID.TID 0000.0001) %MON dynstat_theta_del2           =   1.9589281627037E-04
(PID.TID 0000.0001) %MON dynstat_salt_max             =   1.7020387109310E+01
(PID.TID 0000.0001) %MON dynstat_salt_min             =   1.6979612982851E+01
(PID.TID 0000.0001) %MON dynstat_salt_mean            =   1.7000000005831E+01
(PID.TID 0000.0001) %MON dynstat_salt_sd              =   1.8684409657116E-02
(PID.TID 0000.0001) %MON dynstat_salt_del2            =   1.9166734441062E-04
(PID.TID 0000.0001) %MON advcfl_uvel_max              =   4.5997220715901E-02
(PID.TID 0000.0001) %MON advcfl_vvel_max              =   5.7628261714108E-03
(PID.TID 0000.0001) %MON advcfl_wvel_max              =   4.1100766735255E-02
(PID.TID 0000.0001) %MON advcfl_W_hf_max              =   4.1100766735255E-02
(PID.TID 0000.0001) %MON pe_b_mean                    =   3.4202775837450E-09
(PID.TID 0000.0001) %MON ke_max                       =   7.4219824834080E-04
(PID.TID 0000.0001) %MON ke_mean                      =   4.2208160300904E-05
(PID.TID 0000.0001) %MON ke_vol                       =   2.5000000000000E+11
(PID.TID 0000.0001) %MON vort_r_min                   =  -1.0998639468342E-05
(PID.TID 0000.0001) %MON vort_r_max                   =   1.2222559880388E-05
(PID.TID 0000.0001) %MON vort_a_mean                  =   7.2900000000000E-05
(PID.TID 0000.0001) %MON vort_a_sd                    =   3.1761033825988E-06
(PID.TID 0000.0001) %MON vort_p_mean                  =   7.7363265306122E-05
(PID.TID 0000.0001) %MON vort_p_sd                    =   3.1095023672760E-05
(PID.TID 0000.0001) %MON surfExpan_theta_mean         =   1.7899524325279E-13
(PID.TID 0000.0001) %MON surfExpan_salt_mean          =  -1.8175998880798E-16
(PID.TID 0000.0001) // =======================================================
(PID.TID 0000.0001) // End MONITOR dynamic field statistics
(PID.TID 0000.0001) // =======================================================
 cg2d: Sum(rhs),rhsMax =  -3.28581075108997E-13  7.93619461654695E-04
(PID.TID 0000.0001)                    cg2d_init_res =    7.07113535343925E-02
(PID.TID 0000.0001)                       cg2d_iters =    77
(PID.TID 0000.0001)                         cg2d_res =    8.61676181211689E-12
(PID.TID 0000.0001) // =======================================================
(PID.TID 0000.0001) // Begin MONITOR dynamic field statistics
(PID.TID 0000.0001) // =======================================================
(PID.TID 0000.0001) %MON time_tsnumber                =                    39
(PID.TID 0000.0001) %MON time_secondsf                =   4.6800000000000E+04
(PID.TID 0000.0001) %MON dynstat_eta_max              =   3.9728108521351E-04
(PID.TID 0000.0001) %MON dynstat_eta_min              =  -4.1822459907408E-04
(PID.TID 0000.0001) %MON dynstat_eta_mean             =   6.2690162090373E-17
(PID.TID 0000.0001) %MON dynstat_eta_sd               =   3.7344384102297E-04
(PID.TID 0000.0001) %MON dynstat_eta_del2             =   3.9097597562005E-06
(PID.TID 0000.0001) %MON dynstat_uvel_max             =   3.8103256204414E-02
(PID.TID 0000.0001) %MON dynstat_uvel_min             =  -3.8104940896929E-02
(PID.TID 0000.0001) %MON dynstat_uvel_mean            =  -9.1503034882127E-07
(PID.TID 0000.0001) %MON dynstat_uvel_sd              =   9.0583085385354E-03
(PID.TID 0000.0001) %MON dynstat_uvel_del2            =   2.5703077202332E-04
(PID.TID 0000.0001) %MON dynstat_vvel_max             =   3.9518439477876E-03
(PID.TID 0000.0001) %MON dynstat_vvel_min             =  -3.9469640779615E-03
(PID.TID 0000.0001) %MON dynstat_vvel_mean            =   4.7939307014765E-11
(PID.TID 0000.0001) %MON dynstat_vvel_sd              =   1.1664638558286E-03
(PID.TID 0000.0001) %MON dynstat_vvel_del2            =   1.1285193191647E-04
(PID.TID 0000.0001) %MON dynstat_wvel_max             =   1.5716506381714E-04
(PID.TID 0000.0001) %MON dynstat_wvel_min             =  -1.5749434785262E-04
(PID.TID 0000.0001) %MON dynstat_wvel_mean            =  -3.7554365606983E-23
(PID.TID 0000.0001) %MON dynstat_wvel_sd              =   4.8465115367598E-05
(PID.TID 0000.0001) %MON dynstat_wvel_del2            =   7.1253858680349E-06
(PID.TID 0000.0001) %MON dynstat_theta_max            =   1.7020391872703E+01
(PID.TID 0000.0001) %MON dynstat_theta_min            =   1.6979608188987E+01
(PID.TID 0000.0001) %MON dynstat_theta_mean           =   1.6999999916827E+01
(PID.TID 0000.0001) %MON dynstat_theta_sd             =   1.8680561452990E-02
(PID.TID 0000.0001) %MON dynstat_theta_del2           =   1.9585938218395E-04
(PID.TID 0000.0001) %MON dynstat_salt_max             =   1.7020387109310E+01
(PID.TID 0000.0001) %MON dynstat_salt_min             =   1.6979612982851E+01
(PID.TID 0000.0001) %MON dynstat_salt_mean            =   1.7000000005831E+01
(PID.TID 0000.0001) %MON dynstat_salt_sd              =   1.8684366735198E-02
(PID.TID 0000.0001) %MON dynstat_salt_del2            =   1.9187568393107E-04
(PID.TID 0000.0001) %MON advcfl_uvel_max              =   4.5725929076315E-02
(PID.TID 0000.0001) %MON advcfl_vvel_max              =   4.7422127373452E-03
(PID.TID 0000.0001) %MON advcfl_wvel_max              =   3.7798643484628E-02
(PID.TID 0000.0001) %MON advcfl_W_hf_max              =   3.7798643484628E-02
(PID.TID 0000.0001) %MON pe_b_mean                    =   3.4202639163106E-09
(PID.TID 0000.0001) %MON ke_max                       =   7.2954002302572E-04
(PID.TID 0000.0001) %MON ke_mean                      =   4.1679583413230E-05
(PID.TID 0000.0001) %MON ke_vol                       =   2.5000000000000E+11
(PID.TID 0000.0001) %MON vort_r_min                   =  -1.0979150561476E-05
(PID.TID 0000.0001) %MON vort_r_max                   =   1.2207303292975E-05
(PID.TID 0000.0001) %MON vort_a_mean                  =   7.2900000000001E-05
(PID.TID 0000.0001) %MON vort_a_sd                    =   3.1643425612839E-06
(PID.TID 0000.0001) %MON vort_p_mean                  =   7.7363265306123E-05
(PID.TID 0000.0001) %MON vort_p_sd                    =   3.1093751208114E-05
(PID.TID 0000.0001) %MON surfExpan_theta_mean         =   5.4363707436137E-14
(PID.TID 0000.0001) %MON surfExpan_salt_mean          =  -2.0326332403712E-16
(PID.TID 0000.0001) // =======================================================
(PID.TID 0000.0001) // End MONITOR dynamic field statistics
(PID.TID 0000.0001) // =======================================================
 cg2d: Sum(rhs),rhsMax =  -3.04675664038190E-13  7.97094820311529E-04
(PID.TID 0000.0001)                    cg2d_init_res =    5.35956065078929E-02
(PID.TID 0000.0001)                       cg2d_iters =    77
(PID.TID 0000.0001)                         cg2d_res =    8.04387771961668E-12
(PID.TID 0000.0001) // =======================================================
(PID.TID 0000.0001) // Begin MONITOR dynamic field statistics
(PID.TID 0000.0001) // =======================================================
(PID.TID 0000.0001) %MON time_tsnumber                =                    40
(PID.TID 0000.0001) %MON time_secondsf                =   4.8000000000000E+04
(PID.TID 0000.0001) %MON dynstat_eta_max              =   3.9733946838502E-04
(PID.TID 0000.0001) %MON dynstat_eta_min              =  -4.1816624615016E-04
(PID.TID 0000.0001) %MON dynstat_eta_mean             =   6.5160810350240E-17
(PID.TID 0000.0001) %MON dynstat_eta_sd               =   3.7343984120379E-04
(PID.TID 0000.0001) %MON dynstat_eta_del2             =   3.9101241953586E-06
(PID.TID 0000.0001) %MON dynstat_uvel_max             =   3.7771904196457E-02
(PID.TID 0000.0001) %MON dynstat_uvel_min             =  -3.7773543430687E-02
(PID.TID 0000.0001) %MON dynstat_uvel_mean            =  -9.1503035345115E-07
(PID.TID 0000.0001) %MON dynstat_uvel_sd              =   8.9622113420370E-03
(PID.TID 0000.0001) %MON dynstat_uvel_del2            =   2.5566064057624E-04
(PID.TID 0000.0001) %MON dynstat_vvel_max             =   4.6431393816959E-03
(PID.TID 0000.0001) %MON dynstat_vvel_min             =  -4.6385057813624E-03
(PID.TID 0000.0001) %MON dynstat_vvel_mean            =   8.3133165749699E-12
(PID.TID 0000.0001) %MON dynstat_vvel_sd              =   1.3298505084832E-03
(PID.TID 0000.0001) %MON dynstat_vvel_del2            =   1.1191880534604E-04
(PID.TID 0000.0001) %MON dynstat_wvel_max             =   1.4394267033144E-04
(PID.TID 0000.0001) %MON dynstat_wvel_min             =  -1.4425932625751E-04
(PID.TID 0000.0001) %MON dynstat_wvel_mean            =   1.0025114512970E-21
(PID.TID 0000.0001) %MON dynstat_wvel_sd              =   4.6367052524950E-05
(PID.TID 0000.0001) %MON dynstat_wvel_del2            =   7.0134562342865E-06
(PID.TID 0000.0001) %MON dynstat_theta_max            =   1.7020391872702E+01
(PID.TID 0000.0001) %MON dynstat_theta_min            =   1.6979608188987E+01
(PID.TID 0000.0001) %MON dynstat_theta_mean           =   1.6999999916828E+01
(PID.TID 0000.0001) %MON dynstat_theta_sd             =   1.8680533309039E-02
(PID.TID 0000.0001) %MON dynstat_theta_del2           =   1.9584212977456E-04
(PID.TID 0000.0001) %MON dynstat_salt_max             =   1.7020387109310E+01
(PID.TID 0000.0001) %MON dynstat_salt_min             =   1.6979612982851E+01
(PID.TID 0000.0001) %MON dynstat_salt_mean            =   1.7000000005831E+01
(PID.TID 0000.0001) %MON dynstat_salt_sd              =   1.8684324235533E-02
(PID.TID 0000.0001) %MON dynstat_salt_del2            =   1.9208043805116E-04
(PID.TID 0000.0001) %MON advcfl_uvel_max              =   4.5328252116825E-02
(PID.TID 0000.0001) %MON advcfl_vvel_max              =   5.5717672580351E-03
(PID.TID 0000.0001) %MON advcfl_wvel_max              =   3.4622238301802E-02
(PID.TID 0000.0001) %MON advcfl_W_hf_max              =   3.4622238301802E-02
(PID.TID 0000.0001) %MON pe_b_mean                    =   3.4201906503336E-09
(PID.TID 0000.0001) %MON ke_max                       =   7.1467773184868E-04
(PID.TID 0000.0001) %MON ke_mean                      =   4.1009497628267E-05
(PID.TID 0000.0001) %MON ke_vol                       =   2.5000000000000E+11
(PID.TID 0000.0001) %MON vort_r_min                   =  -1.0937148556978E-05
(PID.TID 0000.0001) %MON vort_r_max                   =   1.2160166455133E-05
(PID.TID 0000.0001) %MON vort_a_mean                  =   7.2900000000001E-05
(PID.TID 0000.0001) %MON vort_a_sd                    =   3.1444375354409E-06
(PID.TID 0000.0001) %MON vort_p_mean                  =   7.7363265306124E-05
(PID.TID 0000.0001) %MON vort_p_sd                    =   3.1091608228702E-05
(PID.TID 0000.0001) %MON surfExpan_theta_mean         =  -6.6152911380694E-14
(PID.TID 0000.0001) %MON surfExpan_salt_mean          =  -2.1856408468773E-16
(PID.TID 0000.0001) // =======================================================
(PID.TID 0000.0001) // End MONITOR dynamic field statistics
(PID.TID 0000.0001) // =======================================================
 cg2d: Sum(rhs),rhsMax =  -3.49157334988970E-13  8.00144724462507E-04
(PID.TID 0000.0001)                    cg2d_init_res =    4.17570021427625E-02
(PID.TID 0000.0001)                       cg2d_iters =    77
(PID.TID 0000.0001)                         cg2d_res =    7.48304037375358E-12
(PID.TID 0000.0001) // =======================================================
(PID.TID 0000.0001) // Begin MONITOR dynamic field statistics
(PID.TID 0000.0001) // =======================================================
(PID.TID 0000.0001) %MON time_tsnumber                =                    41
(PID.TID 0000.0001) %MON time_secondsf                =   4.9200000000000E+04
(PID.TID 0000.0001) %MON dynstat_eta_max              =   3.9746063502684E-04
(PID.TID 0000.0001) %MON dynstat_eta_min              =  -4.1804511033235E-04
(PID.TID 0000.0001) %MON dynstat_eta_mean             =   5.9524885311912E-17
(PID.TID 0000.0001) %MON dynstat_eta_sd               =   3.7343283838162E-04
(PID.TID 0000.0001) %MON dynstat_eta_del2             =   3.9098784579091E-06
(PID.TID 0000.0001) %MON dynstat_uvel_max             =   3.7339502893744E-02
(PID.TID 0000.0001) %MON dynstat_uvel_min             =  -3.7341103305993E-02
(PID.TID 0000.0001) %MON dynstat_uvel_mean            =  -9.1502635683580E-07
(PID.TID 0000.0001) %MON dynstat_uvel_sd              =   8.8381044545644E-03
(PID.TID 0000.0001) %MON dynstat_uvel_del2            =   2.5366001492583E-04
(PID.TID 0000.0001) %MON dynstat_vvel_max             =   5.3095132080102E-03
(PID.TID 0000.0001) %MON dynstat_vvel_min             =  -5.3051190268701E-03
(PID.TID 0000.0001) %MON dynstat_vvel_mean            =  -2.9595436956253E-11
(PID.TID 0000.0001) %MON dynstat_vvel_sd              =   1.5463721087703E-03
(PID.TID 0000.0001) %MON dynstat_vvel_del2            =   1.1114719710077E-04
(PID.TID 0000.0001) %MON dynstat_wvel_max             =   1.3139361650731E-04
(PID.TID 0000.0001) %MON dynstat_wvel_min             =  -1.3169720311537E-04
(PID.TID 0000.0001) %MON dynstat_wvel_mean            =  -1.8587415497327E-21
(PID.TID 0000.0001) %MON dynstat_wvel_sd              =   4.5149953061254E-05
(PID.TID 0000.0001) %MON dynstat_wvel_del2            =   6.9099932321300E-06
(PID.TID 0000.0001) %MON dynstat_theta_max            =   1.7020391872702E+01
(PID.TID 0000.0001) %MON dynstat_theta_min            =   1.6979608188987E+01
(PID.TID 0000.0001) %MON dynstat_theta_mean           =   1.6999999916829E+01
(PID.TID 0000.0001) %MON dynstat_theta_sd             =   1.8680504844254E-02
(PID.TID 0000.0001) %MON dynstat_theta_del2           =   1.9583618993195E-04
(PID.TID 0000.0001) %MON dynstat_salt_max             =   1.7020387109310E+01
(PID.TID 0000.0001) %MON dynstat_salt_min             =   1.6979612982851E+01
(PID.TID 0000.0001) %MON dynstat_salt_mean            =   1.7000000005831E+01
(PID.TID 0000.0001) %MON dynstat_salt_sd              =   1.8684281058175E-02
(PID.TID 0000.0001) %MON dynstat_salt_del2            =   1.9232961121021E-04
(PID.TID 0000.0001) %MON advcfl_uvel_max              =   4.4809323967191E-02
(PID.TID 0000.0001) %MON advcfl_vvel_max              =   6.3714158496122E-03
(PID.TID 0000.0001) %MON advcfl_wvel_max              =   3.1607328747689E-02
(PID.TID 0000.0001) %MON advcfl_W_hf_max              =   3.1607328747689E-02
(PID.TID 0000.0001) %MON pe_b_mean                    =   3.4200623792724E-09
(PID.TID 0000.0001) %MON ke_max                       =   6.9773595870631E-04
(PID.TID 0000.0001) %MON ke_mean                      =   4.0203853608947E-05
(PID.TID 0000.0001) %MON ke_vol                       =   2.5000000000000E+11
(PID.TID 0000.0001) %MON vort_r_min                   =  -1.0873755025298E-05
(PID.TID 0000.0001) %MON vort_r_max                   =   1.2082583361617E-05
(PID.TID 0000.0001) %MON vort_a_mean                  =   7.2900000000000E-05
(PID.TID 0000.0001) %MON vort_a_sd                    =   3.1167812105449E-06
(PID.TID 0000.0001) %MON vort_p_mean                  =   7.7363265306122E-05
(PID.TID 0000.0001) %MON vort_p_sd                    =   3.1088652956517E-05
(PID.TID 0000.0001) %MON surfExpan_theta_mean         =  -1.7968950081947E-13
(PID.TID 0000.0001) %MON surfExpan_salt_mean          =  -2.3017356457500E-16
(PID.TID 0000.0001) // =======================================================
(PID.TID 0000.0001) // End MONITOR dynamic field statistics
(PID.TID 0000.0001) // =======================================================
 cg2d: Sum(rhs),rhsMax =  -2.87655045182883E-13  8.02772471650516E-04
(PID.TID 0000.0001)                    cg2d_init_res =    3.84117491136014E-02
(PID.TID 0000.0001)                       cg2d_iters =    76
(PID.TID 0000.0001)                         cg2d_res =    9.60319614559715E-12
(PID.TID 0000.0001) // =======================================================
(PID.TID 0000.0001) // Begin MONITOR dynamic field statistics
(PID.TID 0000.0001) // =======================================================
(PID.TID 0000.0001) %MON time_tsnumber                =                    42
(PID.TID 0000.0001) %MON time_secondsf                =   5.0400000000000E+04
(PID.TID 0000.0001) %MON dynstat_eta_max              =   3.9763956610975E-04
(PID.TID 0000.0001) %MON dynstat_eta_min              =  -4.1786621043833E-04
(PID.TID 0000.0001) %MON dynstat_eta_mean             =   5.8189527789576E-17
(PID.TID 0000.0001) %MON dynstat_eta_sd               =   3.7342320071024E-04
(PID.TID 0000.0001) %MON dynstat_eta_del2             =   3.9090259736636E-06
(PID.TID 0000.0001) %MON dynstat_uvel_max             =   3.6810933183251E-02
(PID.TID 0000.0001) %MON dynstat_uvel_min             =  -3.6812501424187E-02
(PID.TID 0000.0001) %MON dynstat_uvel_mean            =  -9.1501881523128E-07
(PID.TID 0000.0001) %MON dynstat_uvel_sd              =   8.6872748690952E-03
(PID.TID 0000.0001) %MON dynstat_uvel_del2            =   2.5110336034192E-04
(PID.TID 0000.0001) %MON dynstat_vvel_max             =   5.9515958603670E-03
(PID.TID 0000.0001) %MON dynstat_vvel_min             =  -5.9473368726494E-03
(PID.TID 0000.0001) %MON dynstat_vvel_mean            =  -6.4834405619743E-11
(PID.TID 0000.0001) %MON dynstat_vvel_sd              =   1.7883627262306E-03
(PID.TID 0000.0001) %MON dynstat_vvel_del2            =   1.1050277701225E-04
(PID.TID 0000.0001) %MON dynstat_wvel_max             =   1.1946213922824E-04
(PID.TID 0000.0001) %MON dynstat_wvel_min             =  -1.1975310028811E-04
(PID.TID 0000.0001) %MON dynstat_wvel_mean            =   1.1387744133262E-21
(PID.TID 0000.0001) %MON dynstat_wvel_sd              =   4.4789372317196E-05
(PID.TID 0000.0001) %MON dynstat_wvel_del2            =   6.8157940363595E-06
(PID.TID 0000.0001) %MON dynstat_theta_max            =   1.7020391872702E+01
(PID.TID 0000.0001) %MON dynstat_theta_min            =   1.6979608188987E+01
(PID.TID 0000.0001) %MON dynstat_theta_mean           =   1.6999999916830E+01
(PID.TID 0000.0001) %MON dynstat_theta_sd             =   1.8680472667377E-02
(PID.TID 0000.0001) %MON dynstat_theta_del2           =   1.9583798299542E-04
(PID.TID 0000.0001) %MON dynstat_salt_max             =   1.7020387109310E+01
(PID.TID 0000.0001) %MON dynstat_salt_min             =   1.6979612982851E+01
(PID.TID 0000.0001) %MON dynstat_salt_mean            =   1.7000000005832E+01
(PID.TID 0000.0001) %MON dynstat_salt_sd              =   1.8684238019950E-02
(PID.TID 0000.0001) %MON dynstat_salt_del2            =   1.9262566033358E-04
(PID.TID 0000.0001) %MON advcfl_uvel_max              =   4.4175001709025E-02
(PID.TID 0000.0001) %MON advcfl_vvel_max              =   7.1419150324404E-03
(PID.TID 0000.0001) %MON advcfl_wvel_max              =   2.8740744069146E-02
(PID.TID 0000.0001) %MON advcfl_W_hf_max              =   2.8740744069146E-02
(PID.TID 0000.0001) %MON pe_b_mean                    =   3.4198858494734E-09
(PID.TID 0000.0001) %MON ke_max                       =   6.7884974177345E-04
(PID.TID 0000.0001) %MON ke_mean                      =   3.9269528539710E-05
(PID.TID 0000.0001) %MON ke_vol                       =   2.5000000000000E+11
(PID.TID 0000.0001) %MON vort_r_min                   =  -1.0790187395817E-05
(PID.TID 0000.0001) %MON vort_r_max                   =   1.1976172395004E-05
(PID.TID 0000.0001) %MON vort_a_mean                  =   7.2900000000000E-05
(PID.TID 0000.0001) %MON vort_a_sd                    =   3.0818183596464E-06
(PID.TID 0000.0001) %MON vort_p_mean                  =   7.7363265306122E-05
(PID.TID 0000.0001) %MON vort_p_sd                    =   3.1084953908706E-05
(PID.TID 0000.0001) %MON surfExpan_theta_mean         =  -2.8395434874151E-13
(PID.TID 0000.0001) %MON surfExpan_salt_mean          =  -2.4715805867355E-16
(PID.TID 0000.0001) // =======================================================
(PID.TID 0000.0001) // End MONITOR dynamic field statistics
(PID.TID 0000.0001) // =======================================================
 cg2d: Sum(rhs),rhsMax =  -4.11200587469018E-13  8.05004047637205E-04
(PID.TID 0000.0001)                    cg2d_init_res =    4.36846388826742E-02
(PID.TID 0000.0001)                       cg2d_iters =    76
(PID.TID 0000.0001)                         cg2d_res =    9.37084736657126E-12
(PID.TID 0000.0001) // =======================================================
(PID.TID 0000.0001) // Begin MONITOR dynamic field statistics
(PID.TID 0000.0001) // =======================================================
(PID.TID 0000.0001) %MON time_tsnumber                =                    43
(PID.TID 0000.0001) %MON time_secondsf                =   5.1600000000000E+04
(PID.TID 0000.0001) %MON dynstat_eta_max              =   3.9787027184680E-04
(PID.TID 0000.0001) %MON dynstat_eta_min              =  -4.1763553419145E-04
(PID.TID 0000.0001) %MON dynstat_eta_mean             =   4.2939453374080E-17
(PID.TID 0000.0001) %MON dynstat_eta_sd               =   3.7341147488689E-04
(PID.TID 0000.0001) %MON dynstat_eta_del2             =   3.9075847603607E-06
(PID.TID 0000.0001) %MON dynstat_uvel_max             =   3.6191641416278E-02
(PID.TID 0000.0001) %MON dynstat_uvel_min             =  -3.6193183513405E-02
(PID.TID 0000.0001) %MON dynstat_uvel_mean            =  -9.1500824447607E-07
(PID.TID 0000.0001) %MON dynstat_uvel_sd              =   8.5112079745628E-03
(PID.TID 0000.0001) %MON dynstat_uvel_del2            =   2.4800068311332E-04
(PID.TID 0000.0001) %MON dynstat_vvel_max             =   6.5593643424625E-03
(PID.TID 0000.0001) %MON dynstat_vvel_min             =  -6.5553323755690E-03
(PID.TID 0000.0001) %MON dynstat_vvel_mean            =  -9.7440794502597E-11
(PID.TID 0000.0001) %MON dynstat_vvel_sd              =   2.0381455904400E-03
(PID.TID 0000.0001) %MON dynstat_vvel_del2            =   1.0993746709192E-04
(PID.TID 0000.0001) %MON dynstat_wvel_max             =   1.2384279147796E-04
(PID.TID 0000.0001) %MON dynstat_wvel_min             =  -1.2394088487315E-04
(PID.TID 0000.0001) %MON dynstat_wvel_mean            =   6.0098798735856E-22
(PID.TID 0000.0001) %MON dynstat_wvel_sd              =   4.5193029104912E-05
(PID.TID 0000.0001) %MON dynstat_wvel_del2            =   6.7314596246992E-06
(PID.TID 0000.0001) %MON dynstat_theta_max            =   1.7020391872702E+01
(PID.TID 0000.0001) %MON dynstat_theta_min            =   1.6979608188987E+01
(PID.TID 0000.0001) %MON dynstat_theta_mean           =   1.6999999916833E+01
(PID.TID 0000.0001) %MON dynstat_theta_sd             =   1.8680435457740E-02
(PID.TID 0000.0001) %MON dynstat_theta_del2           =   1.9584484474249E-04
(PID.TID 0000.0001) %MON dynstat_salt_max             =   1.7020387109310E+01
(PID.TID 0000.0001) %MON dynstat_salt_min             =   1.6979612982851E+01
(PID.TID 0000.0001) %MON dynstat_salt_mean            =   1.7000000005832E+01
(PID.TID 0000.0001) %MON dynstat_salt_sd              =   1.8684195417730E-02
(PID.TID 0000.0001) %MON dynstat_salt_del2            =   1.9288820044957E-04
(PID.TID 0000.0001) %MON advcfl_uvel_max              =   4.3431820216086E-02
(PID.TID 0000.0001) %MON advcfl_vvel_max              =   7.8712372109550E-03
(PID.TID 0000.0001) %MON advcfl_wvel_max              =   2.9745812369556E-02
(PID.TID 0000.0001) %MON advcfl_W_hf_max              =   2.9745812369556E-02
(PID.TID 0000.0001) %MON pe_b_mean                    =   3.4196710778809E-09
(PID.TID 0000.0001) %MON ke_max                       =   6.5816425534741E-04
(PID.TID 0000.0001) %MON ke_mean                      =   3.8214268986709E-05
(PID.TID 0000.0001) %MON ke_vol                       =   2.5000000000000E+11
(PID.TID 0000.0001) %MON vort_r_min                   =  -1.0687751302620E-05
(PID.TID 0000.0001) %MON vort_r_max                   =   1.1842716806789E-05
(PID.TID 0000.0001) %MON vort_a_mean                  =   7.2900000000000E-05
(PID.TID 0000.0001) %MON vort_a_sd                    =   3.0400412869866E-06
(PID.TID 0000.0001) %MON vort_p_mean                  =   7.7363265306123E-05
(PID.TID 0000.0001) %MON vort_p_sd                    =   3.1080588085081E-05
(PID.TID 0000.0001) %MON surfExpan_theta_mean         =  -3.7556685920839E-13
(PID.TID 0000.0001) %MON surfExpan_salt_mean          =  -2.6587622228108E-16
(PID.TID 0000.0001) // =======================================================
(PID.TID 0000.0001) // End MONITOR dynamic field statistics
(PID.TID 0000.0001) // =======================================================
 cg2d: Sum(rhs),rhsMax =  -2.73183981946284E-13  8.06873203704269E-04
(PID.TID 0000.0001)                    cg2d_init_res =    5.34905259011172E-02
(PID.TID 0000.0001)                       cg2d_iters =    76
(PID.TID 0000.0001)                         cg2d_res =    9.27040210297837E-12
(PID.TID 0000.0001) // =======================================================
(PID.TID 0000.0001) // Begin MONITOR dynamic field statistics
(PID.TID 0000.0001) // =======================================================
(PID.TID 0000.0001) %MON time_tsnumber                =                    44
(PID.TID 0000.0001) %MON time_secondsf                =   5.2800000000000E+04
(PID.TID 0000.0001) %MON dynstat_eta_max              =   3.9814596047725E-04
(PID.TID 0000.0001) %MON dynstat_eta_min              =  -4.1735987321447E-04
(PID.TID 0000.0001) %MON dynstat_eta_mean             =   2.8387112514516E-17
(PID.TID 0000.0001) %MON dynstat_eta_sd               =   3.7339832108815E-04
(PID.TID 0000.0001) %MON dynstat_eta_del2             =   3.9055982261312E-06
(PID.TID 0000.0001) %MON dynstat_uvel_max             =   3.5487599493817E-02
(PID.TID 0000.0001) %MON dynstat_uvel_min             =  -3.5489121621297E-02
(PID.TID 0000.0001) %MON dynstat_uvel_mean            =  -9.1499531635389E-07
(PID.TID 0000.0001) %MON dynstat_uvel_sd              =   8.3115765521031E-03
(PID.TID 0000.0001) %MON dynstat_uvel_del2            =   2.4438655613934E-04
(PID.TID 0000.0001) %MON dynstat_vvel_max             =   7.1275020940672E-03
(PID.TID 0000.0001) %MON dynstat_vvel_min             =  -7.1236863314181E-03
(PID.TID 0000.0001) %MON dynstat_vvel_mean            =  -1.2730833660470E-10
(PID.TID 0000.0001) %MON dynstat_vvel_sd              =   2.2846748569683E-03
(PID.TID 0000.0001) %MON dynstat_vvel_del2            =   1.0948088208470E-04
(PID.TID 0000.0001) %MON dynstat_wvel_max             =   1.3382542497604E-04
(PID.TID 0000.0001) %MON dynstat_wvel_min             =  -1.3392266259108E-04
(PID.TID 0000.0001) %MON dynstat_wvel_mean            =   5.5297289650121E-22
(PID.TID 0000.0001) %MON dynstat_wvel_sd              =   4.6217874858071E-05
(PID.TID 0000.0001) %MON dynstat_wvel_del2            =   6.6573376891901E-06
(PID.TID 0000.0001) %MON dynstat_theta_max            =   1.7020391872701E+01
(PID.TID 0000.0001) %MON dynstat_theta_min            =   1.6979608188987E+01
(PID.TID 0000.0001) %MON dynstat_theta_mean           =   1.6999999916835E+01
(PID.TID 0000.0001) %MON dynstat_theta_sd             =   1.8680393462175E-02
(PID.TID 0000.0001) %MON dynstat_theta_del2           =   1.9585640940948E-04
(PID.TID 0000.0001) %MON dynstat_salt_max             =   1.7020387109310E+01
(PID.TID 0000.0001) %MON dynstat_salt_min             =   1.6979612982850E+01
(PID.TID 0000.0001) %MON dynstat_salt_mean            =   1.7000000005832E+01
(PID.TID 0000.0001) %MON dynstat_salt_sd              =   1.8684152946440E-02
(PID.TID 0000.0001) %MON dynstat_salt_del2            =   1.9313316751904E-04
(PID.TID 0000.0001) %MON advcfl_uvel_max              =   4.2586945945557E-02
(PID.TID 0000.0001) %MON advcfl_vvel_max              =   8.5530025128806E-03
(PID.TID 0000.0001) %MON advcfl_wvel_max              =   3.2141439021858E-02
(PID.TID 0000.0001) %MON advcfl_W_hf_max              =   3.2141439021858E-02
(PID.TID 0000.0001) %MON pe_b_mean                    =   3.4194301593453E-09
(PID.TID 0000.0001) %MON ke_max                       =   6.3583447420887E-04
(PID.TID 0000.0001) %MON ke_mean                      =   3.7046627626334E-05
(PID.TID 0000.0001) %MON ke_vol                       =   2.5000000000000E+11
(PID.TID 0000.0001) %MON vort_r_min                   =  -1.0567832003107E-05
(PID.TID 0000.0001) %MON vort_r_max                   =   1.1684144945600E-05
(PID.TID 0000.0001) %MON vort_a_mean                  =   7.2900000000000E-05
(PID.TID 0000.0001) %MON vort_a_sd                    =   2.9919853500478E-06
(PID.TID 0000.0001) %MON vort_p_mean                  =   7.7363265306122E-05
(PID.TID 0000.0001) %MON vort_p_sd                    =   3.1075639066298E-05
(PID.TID 0000.0001) %MON surfExpan_theta_mean         =  -4.5208608274218E-13
(PID.TID 0000.0001) %MON surfExpan_salt_mean          =  -3.2558747938873E-16
(PID.TID 0000.0001) // =======================================================
(PID.TID 0000.0001) // End MONITOR dynamic field statistics
(PID.TID 0000.0001) // =======================================================
 cg2d: Sum(rhs),rhsMax =  -1.75636035663201E-13  8.08400660307671E-04
(PID.TID 0000.0001)                    cg2d_init_res =    6.44111617733895E-02
(PID.TID 0000.0001)                       cg2d_iters =    76
(PID.TID 0000.0001)                         cg2d_res =    8.79689988098830E-12
(PID.TID 0000.0001) // =======================================================
(PID.TID 0000.0001) // Begin MONITOR dynamic field statistics
(PID.TID 0000.0001) // =======================================================
(PID.TID 0000.0001) %MON time_tsnumber                =                    45
(PID.TID 0000.0001) %MON time_secondsf                =   5.4000000000000E+04
(PID.TID 0000.0001) %MON dynstat_eta_max              =   3.9845921352028E-04
(PID.TID 0000.0001) %MON dynstat_eta_min              =  -4.1704664537548E-04
(PID.TID 0000.0001) %MON dynstat_eta_mean             =   2.0974929507145E-17
(PID.TID 0000.0001) %MON dynstat_eta_sd               =   3.7338446078013E-04
(PID.TID 0000.0001) %MON dynstat_eta_del2             =   3.9031628841751E-06
(PID.TID 0000.0001) %MON dynstat_uvel_max             =   3.4705265257912E-02
(PID.TID 0000.0001) %MON dynstat_uvel_min             =  -3.4706773177485E-02
(PID.TID 0000.0001) %MON dynstat_uvel_mean            =  -9.1498075823732E-07
(PID.TID 0000.0001) %MON dynstat_uvel_sd              =   8.0902286491518E-03
(PID.TID 0000.0001) %MON dynstat_uvel_del2            =   2.4030591912423E-04
(PID.TID 0000.0001) %MON dynstat_vvel_max             =   7.6518110963029E-03
(PID.TID 0000.0001) %MON dynstat_vvel_min             =  -7.6481996956690E-03
(PID.TID 0000.0001) %MON dynstat_vvel_mean            =  -1.5435862921881E-10
(PID.TID 0000.0001) %MON dynstat_vvel_sd              =   2.5207448223848E-03
(PID.TID 0000.0001) %MON dynstat_vvel_del2            =   1.0909607600794E-04
(PID.TID 0000.0001) %MON dynstat_wvel_max             =   1.4311856473719E-04
(PID.TID 0000.0001) %MON dynstat_wvel_min             =  -1.4321472575587E-04
(PID.TID 0000.0001) %MON dynstat_wvel_mean            =   3.4672427668578E-21
(PID.TID 0000.0001) %MON dynstat_wvel_sd              =   4.7696442913358E-05
(PID.TID 0000.0001) %MON dynstat_wvel_del2            =   6.5935462662684E-06
(PID.TID 0000.0001) %MON dynstat_theta_max            =   1.7020391872693E+01
(PID.TID 0000.0001) %MON dynstat_theta_min            =   1.6979608188987E+01
(PID.TID 0000.0001) %MON dynstat_theta_mean           =   1.6999999916839E+01
(PID.TID 0000.0001) %MON dynstat_theta_sd             =   1.8680346989556E-02
(PID.TID 0000.0001) %MON dynstat_theta_del2           =   1.9587200192271E-04
(PID.TID 0000.0001) %MON dynstat_salt_max             =   1.7020387109310E+01
(PID.TID 0000.0001) %MON dynstat_salt_min             =   1.6979612982850E+01
(PID.TID 0000.0001) %MON dynstat_salt_mean            =   1.7000000005832E+01
(PID.TID 0000.0001) %MON dynstat_salt_sd              =   1.8684096277104E-02
(PID.TID 0000.0001) %MON dynstat_salt_del2            =   1.9355268652736E-04
(PID.TID 0000.0001) %MON advcfl_uvel_max              =   4.1648127812982E-02
(PID.TID 0000.0001) %MON advcfl_vvel_max              =   9.1821733155635E-03
(PID.TID 0000.0001) %MON advcfl_wvel_max              =   3.4371534181410E-02
(PID.TID 0000.0001) %MON advcfl_W_hf_max              =   3.4371534181410E-02
(PID.TID 0000.0001) %MON pe_b_mean                    =   3.4191763099144E-09
(PID.TID 0000.0001) %MON ke_max                       =   6.1202473637689E-04
(PID.TID 0000.0001) %MON ke_mean                      =   3.5775894356972E-05
(PID.TID 0000.0001) %MON ke_vol                       =   2.5000000000000E+11
(PID.TID 0000.0001) %MON vort_r_min                   =  -1.0431884632477E-05
(PID.TID 0000.0001) %MON vort_r_max                   =   1.1502509267835E-05
(PID.TID 0000.0001) %MON vort_a_mean                  =   7.2900000000001E-05
(PID.TID 0000.0001) %MON vort_a_sd                    =   2.9382242199670E-06
(PID.TID 0000.0001) %MON vort_p_mean                  =   7.7363265306123E-05
(PID.TID 0000.0001) %MON vort_p_sd                    =   3.1070195059277E-05
(PID.TID 0000.0001) %MON surfExpan_theta_mean         =  -5.1183575676071E-13
(PID.TID 0000.0001) %MON surfExpan_salt_mean          =  -2.8040269060556E-16
(PID.TID 0000.0001) // =======================================================
(PID.TID 0000.0001) // End MONITOR dynamic field statistics
(PID.TID 0000.0001) // =======================================================
 cg2d: Sum(rhs),rhsMax =  -1.05113075361818E-13  8.09606985179497E-04
(PID.TID 0000.0001)                    cg2d_init_res =    7.48763113097078E-02
(PID.TID 0000.0001)                       cg2d_iters =    78
(PID.TID 0000.0001)                         cg2d_res =    7.92669894451753E-12
(PID.TID 0000.0001) // =======================================================
(PID.TID 0000.0001) // Begin MONITOR dynamic field statistics
(PID.TID 0000.0001) // =======================================================
(PID.TID 0000.0001) %MON time_tsnumber                =                    46
(PID.TID 0000.0001) %MON time_secondsf                =   5.5200000000000E+04
(PID.TID 0000.0001) %MON dynstat_eta_max              =   3.9880193469312E-04
(PID.TID 0000.0001) %MON dynstat_eta_min              =  -4.1670394949973E-04
(PID.TID 0000.0001) %MON dynstat_eta_mean             =   1.9747985147700E-17
(PID.TID 0000.0001) %MON dynstat_eta_sd               =   3.7337058950472E-04
(PID.TID 0000.0001) %MON dynstat_eta_del2             =   3.9003734610627E-06
(PID.TID 0000.0001) %MON dynstat_uvel_max             =   3.3851538625720E-02
(PID.TID 0000.0001) %MON dynstat_uvel_min             =  -3.3853037784244E-02
(PID.TID 0000.0001) %MON dynstat_uvel_mean            =  -9.1496532217957E-07
(PID.TID 0000.0001) %MON dynstat_uvel_sd              =   7.8491744147973E-03
(PID.TID 0000.0001) %MON dynstat_uvel_del2            =   2.3582057362967E-04
(PID.TID 0000.0001) %MON dynstat_vvel_max             =   8.3094452480468E-03
(PID.TID 0000.0001) %MON dynstat_vvel_min             =  -8.3065113222454E-03
(PID.TID 0000.0001) %MON dynstat_vvel_mean            =  -1.7821340746614E-10
(PID.TID 0000.0001) %MON dynstat_vvel_sd              =   2.7413693665850E-03
(PID.TID 0000.0001) %MON dynstat_vvel_del2            =   1.0891774766508E-04
(PID.TID 0000.0001) %MON dynstat_wvel_max             =   1.5164765062745E-04
(PID.TID 0000.0001) %MON dynstat_wvel_min             =  -1.5174138947914E-04
(PID.TID 0000.0001) %MON dynstat_wvel_mean            =  -1.9929722809213E-21
(PID.TID 0000.0001) %MON dynstat_wvel_sd              =   4.9461119590918E-05
(PID.TID 0000.0001) %MON dynstat_wvel_del2            =   6.5400143159280E-06
(PID.TID 0000.0001) %MON dynstat_theta_max            =   1.7020391872692E+01
(PID.TID 0000.0001) %MON dynstat_theta_min            =   1.6979608188987E+01
(PID.TID 0000.0001) %MON dynstat_theta_mean           =   1.6999999916842E+01
(PID.TID 0000.0001) %MON dynstat_theta_sd             =   1.8680296405550E-02
(PID.TID 0000.0001) %MON dynstat_theta_del2           =   1.9589071375783E-04
(PID.TID 0000.0001) %MON dynstat_salt_max             =   1.7020387109310E+01
(PID.TID 0000.0001) %MON dynstat_salt_min             =   1.6979612982850E+01
(PID.TID 0000.0001) %MON dynstat_salt_mean            =   1.7000000005832E+01
(PID.TID 0000.0001) %MON dynstat_salt_sd              =   1.8684036940786E-02
(PID.TID 0000.0001) %MON dynstat_salt_del2            =   1.9390098359106E-04
(PID.TID 0000.0001) %MON advcfl_uvel_max              =   4.0623645341093E-02
(PID.TID 0000.0001) %MON advcfl_vvel_max              =   9.9713342976562E-03
(PID.TID 0000.0001) %MON advcfl_wvel_max              =   3.6417933474993E-02
(PID.TID 0000.0001) %MON advcfl_W_hf_max              =   3.6417933474993E-02
(PID.TID 0000.0001) %MON pe_b_mean                    =   3.4189222690517E-09
(PID.TID 0000.0001) %MON ke_max                       =   5.8690817559266E-04
(PID.TID 0000.0001) %MON ke_mean                      =   3.4412020797480E-05
(PID.TID 0000.0001) %MON ke_vol                       =   2.5000000000000E+11
(PID.TID 0000.0001) %MON vort_r_min                   =  -1.0281423795999E-05
(PID.TID 0000.0001) %MON vort_r_max                   =   1.1299965334918E-05
(PID.TID 0000.0001) %MON vort_a_mean                  =   7.2900000000000E-05
(PID.TID 0000.0001) %MON vort_a_sd                    =   2.8793648819006E-06
(PID.TID 0000.0001) %MON vort_p_mean                  =   7.7363265306123E-05
(PID.TID 0000.0001) %MON vort_p_sd                    =   3.1064346939333E-05
(PID.TID 0000.0001) %MON surfExpan_theta_mean         =  -5.5454111256760E-13
(PID.TID 0000.0001) %MON surfExpan_salt_mean          =  -4.7301866813168E-16
(PID.TID 0000.0001) // =======================================================
(PID.TID 0000.0001) // End MONITOR dynamic field statistics
(PID.TID 0000.0001) // =======================================================
 cg2d: Sum(rhs),rhsMax =  -1.19441403382409E-13  8.10512864629070E-04
(PID.TID 0000.0001)                    cg2d_init_res =    8.40811550381927E-02
(PID.TID 0000.0001)                       cg2d_iters =    76
(PID.TID 0000.0001)                         cg2d_res =    7.18093127827513E-12
(PID.TID 0000.0001) // =======================================================
(PID.TID 0000.0001) // Begin MONITOR dynamic field statistics
(PID.TID 0000.0001) // =======================================================
(PID.TID 0000.0001) %MON time_tsnumber                =                    47
(PID.TID 0000.0001) %MON time_secondsf                =   5.6400000000000E+04
(PID.TID 0000.0001) %MON dynstat_eta_max              =   3.9916597877384E-04
(PID.TID 0000.0001) %MON dynstat_eta_min              =  -4.1633992434686E-04
(PID.TID 0000.0001) %MON dynstat_eta_mean             =   2.2119954719013E-17
(PID.TID 0000.0001) %MON dynstat_eta_sd               =   3.7335736806231E-04
(PID.TID 0000.0001) %MON dynstat_eta_del2             =   3.8973214329871E-06
(PID.TID 0000.0001) %MON dynstat_uvel_max             =   3.2933714718387E-02
(PID.TID 0000.0001) %MON dynstat_uvel_min             =  -3.2935210685266E-02
(PID.TID 0000.0001) %MON dynstat_uvel_mean            =  -9.1494970224149E-07
(PID.TID 0000.0001) %MON dynstat_uvel_sd              =   7.5905720219717E-03
(PID.TID 0000.0001) %MON dynstat_uvel_del2            =   2.3112397644591E-04
(PID.TID 0000.0001) %MON dynstat_vvel_max             =   8.9401635133437E-03
(PID.TID 0000.0001) %MON dynstat_vvel_min             =  -8.9371128573275E-03
(PID.TID 0000.0001) %MON dynstat_vvel_mean            =  -1.9892779676942E-10
(PID.TID 0000.0001) %MON dynstat_vvel_sd              =   2.9429129152721E-03
(PID.TID 0000.0001) %MON dynstat_vvel_del2            =   1.0908691708014E-04
(PID.TID 0000.0001) %MON dynstat_wvel_max             =   1.5935633204522E-04
(PID.TID 0000.0001) %MON dynstat_wvel_min             =  -1.5944762752061E-04
(PID.TID 0000.0001) %MON dynstat_wvel_mean            =  -1.5574612318780E-21
(PID.TID 0000.0001) %MON dynstat_wvel_sd              =   5.1360165802472E-05
(PID.TID 0000.0001) %MON dynstat_wvel_del2            =   6.4971374658227E-06
(PID.TID 0000.0001) %MON dynstat_theta_max            =   1.7020391872690E+01
(PID.TID 0000.0001) %MON dynstat_theta_min            =   1.6979608188987E+01
(PID.TID 0000.0001) %MON dynstat_theta_mean           =   1.6999999916845E+01
(PID.TID 0000.0001) %MON dynstat_theta_sd             =   1.8680242085630E-02
(PID.TID 0000.0001) %MON dynstat_theta_del2           =   1.9591152243509E-04
(PID.TID 0000.0001) %MON dynstat_salt_max             =   1.7020387109310E+01
(PID.TID 0000.0001) %MON dynstat_salt_min             =   1.6979612982850E+01
(PID.TID 0000.0001) %MON dynstat_salt_mean            =   1.7000000005832E+01
(PID.TID 0000.0001) %MON dynstat_salt_sd              =   1.8683985375985E-02
(PID.TID 0000.0001) %MON dynstat_salt_del2            =   1.9429740460612E-04
(PID.TID 0000.0001) %MON advcfl_uvel_max              =   3.9522252822319E-02
(PID.TID 0000.0001) %MON advcfl_vvel_max              =   1.0728196216012E-02
(PID.TID 0000.0001) %MON advcfl_wvel_max              =   3.8267430604945E-02
(PID.TID 0000.0001) %MON advcfl_W_hf_max              =   3.8267430604945E-02
(PID.TID 0000.0001) %MON pe_b_mean                    =   3.4186801381244E-09
(PID.TID 0000.0001) %MON ke_max                       =   5.6066600121689E-04
(PID.TID 0000.0001) %MON ke_mean                      =   3.2965545713836E-05
(PID.TID 0000.0001) %MON ke_vol                       =   2.5000000000000E+11
(PID.TID 0000.0001) %MON vort_r_min                   =  -1.0118012978008E-05
(PID.TID 0000.0001) %MON vort_r_max                   =   1.1078753124301E-05
(PID.TID 0000.0001) %MON vort_a_mean                  =   7.2900000000001E-05
(PID.TID 0000.0001) %MON vort_a_sd                    =   2.8160423524877E-06
(PID.TID 0000.0001) %MON vort_p_mean                  =   7.7363265306123E-05
(PID.TID 0000.0001) %MON vort_p_sd                    =   3.1058186334465E-05
(PID.TID 0000.0001) %MON surfExpan_theta_mean         =  -5.7996935846831E-13
(PID.TID 0000.0001) %MON surfExpan_salt_mean          =  -8.7128673431617E-18
(PID.TID 0000.0001) // =======================================================
(PID.TID 0000.0001) // End MONITOR dynamic field statistics
(PID.TID 0000.0001) // =======================================================
 cg2d: Sum(rhs),rhsMax =  -3.51343303409135E-14  8.11138034327136E-04
(PID.TID 0000.0001)                    cg2d_init_res =    9.18321878107588E-02
(PID.TID 0000.0001)                       cg2d_iters =    76
(PID.TID 0000.0001)                         cg2d_res =    8.73359966156484E-12
(PID.TID 0000.0001) // =======================================================
(PID.TID 0000.0001) // Begin MONITOR dynamic field statistics
(PID.TID 0000.0001) // =======================================================
(PID.TID 0000.0001) %MON time_tsnumber                =                    48
(PID.TID 0000.0001) %MON time_secondsf                =   5.7600000000000E+04
(PID.TID 0000.0001) %MON dynstat_eta_max              =   3.9954364247991E-04
(PID.TID 0000.0001) %MON dynstat_eta_min              =  -4.1596228270423E-04
(PID.TID 0000.0001) %MON dynstat_eta_mean             =   3.7145932706428E-17
(PID.TID 0000.0001) %MON dynstat_eta_sd               =   3.7334536141099E-04
(PID.TID 0000.0001) %MON dynstat_eta_del2             =   3.8940918103027E-06
(PID.TID 0000.0001) %MON dynstat_uvel_max             =   3.1959435181834E-02
(PID.TID 0000.0001) %MON dynstat_uvel_min             =  -3.1960959538065E-02
(PID.TID 0000.0001) %MON dynstat_uvel_mean            =  -9.1493458372110E-07
(PID.TID 0000.0001) %MON dynstat_uvel_sd              =   7.3167126377906E-03
(PID.TID 0000.0001) %MON dynstat_uvel_del2            =   2.2632851482625E-04
(PID.TID 0000.0001) %MON dynstat_vvel_max             =   9.4965781515376E-03
(PID.TID 0000.0001) %MON dynstat_vvel_min             =  -9.4933077026215E-03
(PID.TID 0000.0001) %MON dynstat_vvel_mean            =  -2.1600765377317E-10
(PID.TID 0000.0001) %MON dynstat_vvel_sd              =   3.1226226652321E-03
(PID.TID 0000.0001) %MON dynstat_vvel_del2            =   1.0934391982877E-04
(PID.TID 0000.0001) %MON dynstat_wvel_max             =   1.6618803084572E-04
(PID.TID 0000.0001) %MON dynstat_wvel_min             =  -1.6627646218073E-04
(PID.TID 0000.0001) %MON dynstat_wvel_mean            =  -1.2294854535673E-21
(PID.TID 0000.0001) %MON dynstat_wvel_sd              =   5.3264761811793E-05
(PID.TID 0000.0001) %MON dynstat_wvel_del2            =   6.4645162326375E-06
(PID.TID 0000.0001) %MON dynstat_theta_max            =   1.7020391872689E+01
(PID.TID 0000.0001) %MON dynstat_theta_min            =   1.6979608188987E+01
(PID.TID 0000.0001) %MON dynstat_theta_mean           =   1.6999999916849E+01
(PID.TID 0000.0001) %MON dynstat_theta_sd             =   1.8680184425410E-02
(PID.TID 0000.0001) %MON dynstat_theta_del2           =   1.9593334222252E-04
(PID.TID 0000.0001) %MON dynstat_salt_max             =   1.7020387109310E+01
(PID.TID 0000.0001) %MON dynstat_salt_min             =   1.6979612982850E+01
(PID.TID 0000.0001) %MON dynstat_salt_mean            =   1.7000000005832E+01
(PID.TID 0000.0001) %MON dynstat_salt_sd              =   1.8683933565910E-02
(PID.TID 0000.0001) %MON dynstat_salt_del2            =   1.9470689647168E-04
(PID.TID 0000.0001) %MON advcfl_uvel_max              =   3.8353151445678E-02
(PID.TID 0000.0001) %MON advcfl_vvel_max              =   1.1395893781845E-02
(PID.TID 0000.0001) %MON advcfl_wvel_max              =   3.9906350923374E-02
(PID.TID 0000.0001) %MON advcfl_W_hf_max              =   3.9906350923374E-02
(PID.TID 0000.0001) %MON pe_b_mean                    =   3.4184602617062E-09
(PID.TID 0000.0001) %MON ke_max                       =   5.3348660273655E-04
(PID.TID 0000.0001) %MON ke_mean                      =   3.1447513039077E-05
(PID.TID 0000.0001) %MON ke_vol                       =   2.5000000000000E+11
(PID.TID 0000.0001) %MON vort_r_min                   =  -9.9432532960384E-06
(PID.TID 0000.0001) %MON vort_r_max                   =   1.0841176208479E-05
(PID.TID 0000.0001) %MON vort_a_mean                  =   7.2899999999999E-05
(PID.TID 0000.0001) %MON vort_a_sd                    =   2.7489142232291E-06
(PID.TID 0000.0001) %MON vort_p_mean                  =   7.7363265306122E-05
(PID.TID 0000.0001) %MON vort_p_sd                    =   3.1051803807763E-05
(PID.TID 0000.0001) %MON surfExpan_theta_mean         =  -5.8890877824063E-13
(PID.TID 0000.0001) %MON surfExpan_salt_mean          =  -2.4907782121389E-17
(PID.TID 0000.0001) // =======================================================
(PID.TID 0000.0001) // End MONITOR dynamic field statistics
(PID.TID 0000.0001) // =======================================================
 cg2d: Sum(rhs),rhsMax =  -1.94016677723674E-13  8.11502147682728E-04
(PID.TID 0000.0001)                    cg2d_init_res =    9.79641605350823E-02
(PID.TID 0000.0001)                       cg2d_iters =    76
(PID.TID 0000.0001)                         cg2d_res =    8.23237392920514E-12
(PID.TID 0000.0001) // =======================================================
(PID.TID 0000.0001) // Begin MONITOR dynamic field statistics
(PID.TID 0000.0001) // =======================================================
(PID.TID 0000.0001) %MON time_tsnumber                =                    49
(PID.TID 0000.0001) %MON time_secondsf                =   5.8800000000000E+04
(PID.TID 0000.0001) %MON dynstat_eta_max              =   3.9992699194390E-04
(PID.TID 0000.0001) %MON dynstat_eta_min              =  -4.1557895102579E-04
(PID.TID 0000.0001) %MON dynstat_eta_mean             =   4.2688035375438E-17
(PID.TID 0000.0001) %MON dynstat_eta_sd               =   3.7333501676906E-04
(PID.TID 0000.0001) %MON dynstat_eta_del2             =   3.8907631435424E-06
(PID.TID 0000.0001) %MON dynstat_uvel_max             =   3.0936635363392E-02
(PID.TID 0000.0001) %MON dynstat_uvel_min             =  -3.0938219215327E-02
(PID.TID 0000.0001) %MON dynstat_uvel_mean            =  -9.1492054443989E-07
(PID.TID 0000.0001) %MON dynstat_uvel_sd              =   7.0300046086186E-03
(PID.TID 0000.0001) %MON dynstat_uvel_del2            =   2.2144737512602E-04
(PID.TID 0000.0001) %MON dynstat_vvel_max             =   9.9780364513678E-03
(PID.TID 0000.0001) %MON dynstat_vvel_min             =  -9.9746497524234E-03
(PID.TID 0000.0001) %MON dynstat_vvel_mean            =  -2.2942409923939E-10
(PID.TID 0000.0001) %MON dynstat_vvel_sd              =   3.2783715960386E-03
(PID.TID 0000.0001) %MON dynstat_vvel_del2            =   1.0961701874233E-04
(PID.TID 0000.0001) %MON dynstat_wvel_max             =   1.7209345128392E-04
(PID.TID 0000.0001) %MON dynstat_wvel_min             =  -1.7217845566468E-04
(PID.TID 0000.0001) %MON dynstat_wvel_mean            =  -2.0152020864649E-21
(PID.TID 0000.0001) %MON dynstat_wvel_sd              =   5.5070077131920E-05
(PID.TID 0000.0001) %MON dynstat_wvel_del2            =   6.4408507592507E-06
(PID.TID 0000.0001) %MON dynstat_theta_max            =   1.7020391872687E+01
(PID.TID 0000.0001) %MON dynstat_theta_min            =   1.6979608188987E+01
(PID.TID 0000.0001) %MON dynstat_theta_mean           =   1.6999999916853E+01
(PID.TID 0000.0001) %MON dynstat_theta_sd             =   1.8680123776779E-02
(PID.TID 0000.0001) %MON dynstat_theta_del2           =   1.9595506977999E-04
(PID.TID 0000.0001) %MON dynstat_salt_max             =   1.7020387109310E+01
(PID.TID 0000.0001) %MON dynstat_salt_min             =   1.6979612982850E+01
(PID.TID 0000.0001) %MON dynstat_salt_mean            =   1.7000000005832E+01
(PID.TID 0000.0001) %MON dynstat_salt_sd              =   1.8683764370806E-02
(PID.TID 0000.0001) %MON dynstat_salt_del2            =   1.9522875292589E-04
(PID.TID 0000.0001) %MON advcfl_uvel_max              =   3.7125863058393E-02
(PID.TID 0000.0001) %MON advcfl_vvel_max              =   1.1973643741641E-02
(PID.TID 0000.0001) %MON advcfl_wvel_max              =   4.1322829359524E-02
(PID.TID 0000.0001) %MON advcfl_W_hf_max              =   4.1322829359524E-02
(PID.TID 0000.0001) %MON pe_b_mean                    =   3.4182708271446E-09
(PID.TID 0000.0001) %MON ke_max                       =   5.0556448224475E-04
(PID.TID 0000.0001) %MON ke_mean                      =   2.9869388571561E-05
(PID.TID 0000.0001) %MON ke_vol                       =   2.5000000000000E+11
(PID.TID 0000.0001) %MON vort_r_min                   =  -9.7587719852763E-06
(PID.TID 0000.0001) %MON vort_r_max                   =   1.0589583188589E-05
(PID.TID 0000.0001) %MON vort_a_mean                  =   7.2900000000001E-05
(PID.TID 0000.0001) %MON vort_a_sd                    =   2.6786548898381E-06
(PID.TID 0000.0001) %MON vort_p_mean                  =   7.7363265306123E-05
(PID.TID 0000.0001) %MON vort_p_sd                    =   3.1045287164738E-05
(PID.TID 0000.0001) %MON surfExpan_theta_mean         =  -5.8283955748556E-13
(PID.TID 0000.0001) %MON surfExpan_salt_mean          =  -1.2504668964381E-16
(PID.TID 0000.0001) // =======================================================
(PID.TID 0000.0001) // End MONITOR dynamic field statistics
(PID.TID 0000.0001) // =======================================================
 cg2d: Sum(rhs),rhsMax =  -2.63412772497085E-13  8.11624320690813E-04
(PID.TID 0000.0001)                    cg2d_init_res =    1.03525349905879E-01
(PID.TID 0000.0001)                       cg2d_iters =    77
(PID.TID 0000.0001)                         cg2d_res =    7.81093286524310E-12
(PID.TID 0000.0001) // =======================================================
(PID.TID 0000.0001) // Begin MONITOR dynamic field statistics
(PID.TID 0000.0001) // =======================================================
(PID.TID 0000.0001) %MON time_tsnumber                =                    50
(PID.TID 0000.0001) %MON time_secondsf                =   6.0000000000000E+04
(PID.TID 0000.0001) %MON dynstat_eta_max              =   4.0030562163735E-04
(PID.TID 0000.0001) %MON dynstat_eta_min              =  -4.1520033654200E-04
(PID.TID 0000.0001) %MON dynstat_eta_mean             =   4.3622568832724E-17
(PID.TID 0000.0001) %MON dynstat_eta_sd               =   3.7332661222773E-04
(PID.TID 0000.0001) %MON dynstat_eta_del2             =   3.8874061793470E-06
(PID.TID 0000.0001) %MON dynstat_uvel_max             =   2.9873489598195E-02
(PID.TID 0000.0001) %MON dynstat_uvel_min             =  -2.9875129191866E-02
(PID.TID 0000.0001) %MON dynstat_uvel_mean            =  -9.1490804232435E-07
(PID.TID 0000.0001) %MON dynstat_uvel_sd              =   6.7329568349159E-03
(PID.TID 0000.0001) %MON dynstat_uvel_del2            =   2.1652617848462E-04
(PID.TID 0000.0001) %MON dynstat_vvel_max             =   1.0377487098087E-02
(PID.TID 0000.0001) %MON dynstat_vvel_min             =  -1.0374043194298E-02
(PID.TID 0000.0001) %MON dynstat_vvel_mean            =  -2.3935207451329E-10
(PID.TID 0000.0001) %MON dynstat_vvel_sd              =   3.4085123632379E-03
(PID.TID 0000.0001) %MON dynstat_vvel_del2            =   1.1007779766287E-04
(PID.TID 0000.0001) %MON dynstat_wvel_max             =   1.7703891356469E-04
(PID.TID 0000.0001) %MON dynstat_wvel_min             =  -1.7711960797488E-04
(PID.TID 0000.0001) %MON dynstat_wvel_mean            =  -1.0989673952111E-22
(PID.TID 0000.0001) %MON dynstat_wvel_sd              =   5.6693516500224E-05
(PID.TID 0000.0001) %MON dynstat_wvel_del2            =   6.4243267861619E-06
(PID.TID 0000.0001) %MON dynstat_theta_max            =   1.7020391872686E+01
(PID.TID 0000.0001) %MON dynstat_theta_min            =   1.6979608188987E+01
(PID.TID 0000.0001) %MON dynstat_theta_mean           =   1.6999999916856E+01
(PID.TID 0000.0001) %MON dynstat_theta_sd             =   1.8680060725272E-02
(PID.TID 0000.0001) %MON dynstat_theta_del2           =   1.9597566735651E-04
(PID.TID 0000.0001) %MON dynstat_salt_max             =   1.7020387109310E+01
(PID.TID 0000.0001) %MON dynstat_salt_min             =   1.6979612982850E+01
(PID.TID 0000.0001) %MON dynstat_salt_mean            =   1.7000000005832E+01
(PID.TID 0000.0001) %MON dynstat_salt_sd              =   1.8683687618936E-02
(PID.TID 0000.0001) %MON dynstat_salt_del2            =   1.9572546170594E-04
(PID.TID 0000.0001) %MON advcfl_uvel_max              =   3.5850155030239E-02
(PID.TID 0000.0001) %MON advcfl_vvel_max              =   1.2452984517705E-02
(PID.TID 0000.0001) %MON advcfl_wvel_max              =   4.2508705913972E-02
(PID.TID 0000.0001) %MON advcfl_W_hf_max              =   4.2508705913972E-02
(PID.TID 0000.0001) %MON pe_b_mean                    =   3.4181169242220E-09
(PID.TID 0000.0001) %MON ke_max                       =   4.7710395579688E-04
(PID.TID 0000.0001) %MON ke_mean                      =   2.8242973423514E-05
(PID.TID 0000.0001) %MON ke_vol                       =   2.5000000000000E+11
(PID.TID 0000.0001) %MON vort_r_min                   =  -9.5662104455491E-06
(PID.TID 0000.0001) %MON vort_r_max                   =   1.0326348927555E-05
(PID.TID 0000.0001) %MON vort_a_mean                  =   7.2900000000001E-05
(PID.TID 0000.0001) %MON vort_a_sd                    =   2.6059495635000E-06
(PID.TID 0000.0001) %MON vort_p_mean                  =   7.7363265306123E-05
(PID.TID 0000.0001) %MON vort_p_sd                    =   3.1038719931080E-05
(PID.TID 0000.0001) %MON surfExpan_theta_mean         =  -5.6500748966891E-13
(PID.TID 0000.0001) %MON surfExpan_salt_mean          =  -4.3516750144552E-16
(PID.TID 0000.0001) // =======================================================
(PID.TID 0000.0001) // End MONITOR dynamic field statistics
(PID.TID 0000.0001) // =======================================================
 cg2d: Sum(rhs),rhsMax =  -1.97216266754896E-13  8.11527431722255E-04
(PID.TID 0000.0001)                    cg2d_init_res =    1.05880866769353E-01
(PID.TID 0000.0001)                       cg2d_iters =    76
(PID.TID 0000.0001)                         cg2d_res =    7.68097614968362E-12
(PID.TID 0000.0001) // =======================================================
(PID.TID 0000.0001) // Begin MONITOR dynamic field statistics
(PID.TID 0000.0001) // =======================================================
(PID.TID 0000.0001) %MON time_tsnumber                =                    51
(PID.TID 0000.0001) %MON time_secondsf                =   6.1200000000000E+04
(PID.TID 0000.0001) %MON dynstat_eta_max              =   4.0067632168347E-04
(PID.TID 0000.0001) %MON dynstat_eta_min              =  -4.1482964720030E-04
(PID.TID 0000.0001) %MON dynstat_eta_mean             =   5.1861322173385E-17
(PID.TID 0000.0001) %MON dynstat_eta_sd               =   3.7332044138885E-04
(PID.TID 0000.0001) %MON dynstat_eta_del2             =   3.8840817379044E-06
(PID.TID 0000.0001) %MON dynstat_uvel_max             =   2.8778353931163E-02
(PID.TID 0000.0001) %MON dynstat_uvel_min             =  -2.8780046095756E-02
(PID.TID 0000.0001) %MON dynstat_uvel_mean            =  -9.1489739134717E-07
(PID.TID 0000.0001) %MON dynstat_uvel_sd              =   6.4281611891342E-03
(PID.TID 0000.0001) %MON dynstat_uvel_del2            =   2.1166522356737E-04
(PID.TID 0000.0001) %MON dynstat_vvel_max             =   1.0692771644947E-02
(PID.TID 0000.0001) %MON dynstat_vvel_min             =  -1.0689288468040E-02
(PID.TID 0000.0001) %MON dynstat_vvel_mean            =  -2.4608850089956E-10
(PID.TID 0000.0001) %MON dynstat_vvel_sd              =   3.5117915173233E-03
(PID.TID 0000.0001) %MON dynstat_vvel_del2            =   1.1046050381130E-04
(PID.TID 0000.0001) %MON dynstat_wvel_max             =   1.8099622159005E-04
(PID.TID 0000.0001) %MON dynstat_wvel_min             =  -1.8107401680688E-04
(PID.TID 0000.0001) %MON dynstat_wvel_mean            =   2.0590332667134E-21
(PID.TID 0000.0001) %MON dynstat_wvel_sd              =   5.8071295873349E-05
(PID.TID 0000.0001) %MON dynstat_wvel_del2            =   6.4137712163992E-06
(PID.TID 0000.0001) %MON dynstat_theta_max            =   1.7020391872686E+01
(PID.TID 0000.0001) %MON dynstat_theta_min            =   1.6979608188987E+01
(PID.TID 0000.0001) %MON dynstat_theta_mean           =   1.6999999916860E+01
(PID.TID 0000.0001) %MON dynstat_theta_sd             =   1.8679995694691E-02
(PID.TID 0000.0001) %MON dynstat_theta_del2           =   1.9599421518082E-04
(PID.TID 0000.0001) %MON dynstat_salt_max             =   1.7020387109310E+01
(PID.TID 0000.0001) %MON dynstat_salt_min             =   1.6979612982850E+01
(PID.TID 0000.0001) %MON dynstat_salt_mean            =   1.7000000005832E+01
(PID.TID 0000.0001) %MON dynstat_salt_sd              =   1.8683612246463E-02
(PID.TID 0000.0001) %MON dynstat_salt_del2            =   1.9614155143666E-04
(PID.TID 0000.0001) %MON advcfl_uvel_max              =   3.4536055314907E-02
(PID.TID 0000.0001) %MON advcfl_vvel_max              =   1.2831325973936E-02
(PID.TID 0000.0001) %MON advcfl_wvel_max              =   4.3457764033652E-02
(PID.TID 0000.0001) %MON advcfl_W_hf_max              =   4.3457764033652E-02
(PID.TID 0000.0001) %MON pe_b_mean                    =   3.4180039267887E-09
(PID.TID 0000.0001) %MON ke_max                       =   4.4830205531261E-04
(PID.TID 0000.0001) %MON ke_mean                      =   2.6580314792614E-05
(PID.TID 0000.0001) %MON ke_vol                       =   2.5000000000000E+11
(PID.TID 0000.0001) %MON vort_r_min                   =  -9.3672121024976E-06
(PID.TID 0000.0001) %MON vort_r_max                   =   1.0053887078650E-05
(PID.TID 0000.0001) %MON vort_a_mean                  =   7.2900000000000E-05
(PID.TID 0000.0001) %MON vort_a_sd                    =   2.5314879924850E-06
(PID.TID 0000.0001) %MON vort_p_mean                  =   7.7363265306122E-05
(PID.TID 0000.0001) %MON vort_p_sd                    =   3.1032180024409E-05
(PID.TID 0000.0001) %MON surfExpan_theta_mean         =  -5.3297459400506E-13
(PID.TID 0000.0001) %MON surfExpan_salt_mean          =  -1.8529978280795E-16
(PID.TID 0000.0001) // =======================================================
(PID.TID 0000.0001) // End MONITOR dynamic field statistics
(PID.TID 0000.0001) // =======================================================
 cg2d: Sum(rhs),rhsMax =  -1.66485857218401E-13  8.11228258748098E-04
(PID.TID 0000.0001)                    cg2d_init_res =    1.07282743414229E-01
(PID.TID 0000.0001)                       cg2d_iters =    76
(PID.TID 0000.0001)                         cg2d_res =    7.36513003832425E-12
(PID.TID 0000.0001) // =======================================================
(PID.TID 0000.0001) // Begin MONITOR dynamic field statistics
(PID.TID 0000.0001) // =======================================================
(PID.TID 0000.0001) %MON time_tsnumber                =                    52
(PID.TID 0000.0001) %MON time_secondsf                =   6.2400000000000E+04
(PID.TID 0000.0001) %MON dynstat_eta_max              =   4.0103179048789E-04
(PID.TID 0000.0001) %MON dynstat_eta_min              =  -4.1447419045650E-04
(PID.TID 0000.0001) %MON dynstat_eta_mean             =   6.6221684561496E-17
(PID.TID 0000.0001) %MON dynstat_eta_sd               =   3.7331654860592E-04
(PID.TID 0000.0001) %MON dynstat_eta_del2             =   3.8808416081566E-06
(PID.TID 0000.0001) %MON dynstat_uvel_max             =   2.7659707838282E-02
(PID.TID 0000.0001) %MON dynstat_uvel_min             =  -2.7661449570675E-02
(PID.TID 0000.0001) %MON dynstat_uvel_mean            =  -9.1488900153148E-07
(PID.TID 0000.0001) %MON dynstat_uvel_sd              =   6.1182743244543E-03
(PID.TID 0000.0001) %MON dynstat_uvel_del2            =   2.0697937669877E-04
(PID.TID 0000.0001) %MON dynstat_vvel_max             =   1.0922365243457E-02
(PID.TID 0000.0001) %MON dynstat_vvel_min             =  -1.0918846193342E-02
(PID.TID 0000.0001) %MON dynstat_vvel_mean            =  -2.4920751488435E-10
(PID.TID 0000.0001) %MON dynstat_vvel_sd              =   3.5872976395790E-03
(PID.TID 0000.0001) %MON dynstat_vvel_del2            =   1.1076866032793E-04
(PID.TID 0000.0001) %MON dynstat_wvel_max             =   1.8393529698136E-04
(PID.TID 0000.0001) %MON dynstat_wvel_min             =  -1.8401229671622E-04
(PID.TID 0000.0001) %MON dynstat_wvel_mean            =  -3.9474366150422E-21
(PID.TID 0000.0001) %MON dynstat_wvel_sd              =   5.9155778021303E-05
(PID.TID 0000.0001) %MON dynstat_wvel_del2            =   6.4076408715911E-06
(PID.TID 0000.0001) %MON dynstat_theta_max            =   1.7020391872686E+01
(PID.TID 0000.0001) %MON dynstat_theta_min            =   1.6979608188987E+01
(PID.TID 0000.0001) %MON dynstat_theta_mean           =   1.6999999916863E+01
(PID.TID 0000.0001) %MON dynstat_theta_sd             =   1.8679929215838E-02
(PID.TID 0000.0001) %MON dynstat_theta_del2           =   1.9600995480392E-04
(PID.TID 0000.0001) %MON dynstat_salt_max             =   1.7020387109310E+01
(PID.TID 0000.0001) %MON dynstat_salt_min             =   1.6979612982850E+01
(PID.TID 0000.0001) %MON dynstat_salt_mean            =   1.7000000005832E+01
(PID.TID 0000.0001) %MON dynstat_salt_sd              =   1.8683555002317E-02
(PID.TID 0000.0001) %MON dynstat_salt_del2            =   1.9644951386472E-04
(PID.TID 0000.0001) %MON advcfl_uvel_max              =   3.3193739484810E-02
(PID.TID 0000.0001) %MON advcfl_vvel_max              =   1.3106838292148E-02
(PID.TID 0000.0001) %MON advcfl_wvel_max              =   4.4162951211893E-02
(PID.TID 0000.0001) %MON advcfl_W_hf_max              =   4.4162951211893E-02
(PID.TID 0000.0001) %MON pe_b_mean                    =   3.4179326449810E-09
(PID.TID 0000.0001) %MON ke_max                       =   4.1936348886488E-04
(PID.TID 0000.0001) %MON ke_mean                      =   2.4893618863515E-05
(PID.TID 0000.0001) %MON ke_vol                       =   2.5000000000000E+11
(PID.TID 0000.0001) %MON vort_r_min                   =  -9.1634079265672E-06
(PID.TID 0000.0001) %MON vort_r_max                   =   9.7745661314038E-06
(PID.TID 0000.0001) %MON vort_a_mean                  =   7.2900000000001E-05
(PID.TID 0000.0001) %MON vort_a_sd                    =   2.4559577070409E-06
(PID.TID 0000.0001) %MON vort_p_mean                  =   7.7363265306123E-05
(PID.TID 0000.0001) %MON vort_p_sd                    =   3.1025738632955E-05
(PID.TID 0000.0001) %MON surfExpan_theta_mean         =  -4.9274966602390E-13
(PID.TID 0000.0001) %MON surfExpan_salt_mean          =  -1.2331124265415E-16
(PID.TID 0000.0001) // =======================================================
(PID.TID 0000.0001) // End MONITOR dynamic field statistics
(PID.TID 0000.0001) // =======================================================
 cg2d: Sum(rhs),rhsMax =  -2.02273419368237E-13  8.10745046396757E-04
(PID.TID 0000.0001)                    cg2d_init_res =    1.07065856535051E-01
(PID.TID 0000.0001)                       cg2d_iters =    74
(PID.TID 0000.0001)                         cg2d_res =    9.85702073811518E-12
(PID.TID 0000.0001) // =======================================================
(PID.TID 0000.0001) // Begin MONITOR dynamic field statistics
(PID.TID 0000.0001) // =======================================================
(PID.TID 0000.0001) %MON time_tsnumber                =                    53
(PID.TID 0000.0001) %MON time_secondsf                =   6.3600000000000E+04
(PID.TID 0000.0001) %MON dynstat_eta_max              =   4.0136716466549E-04
(PID.TID 0000.0001) %MON dynstat_eta_min              =  -4.1413882442381E-04
(PID.TID 0000.0001) %MON dynstat_eta_mean             =   8.0135029126849E-17
(PID.TID 0000.0001) %MON dynstat_eta_sd               =   3.7331492744983E-04
(PID.TID 0000.0001) %MON dynstat_eta_del2             =   3.8777276778884E-06
(PID.TID 0000.0001) %MON dynstat_uvel_max             =   2.6526093578922E-02
(PID.TID 0000.0001) %MON dynstat_uvel_min             =  -2.6527882097761E-02
(PID.TID 0000.0001) %MON dynstat_uvel_mean            =  -9.1488291257626E-07
(PID.TID 0000.0001) %MON dynstat_uvel_sd              =   5.8059980141712E-03
(PID.TID 0000.0001) %MON dynstat_uvel_del2            =   2.0257861420652E-04
(PID.TID 0000.0001) %MON dynstat_vvel_max             =   1.1065386059478E-02
(PID.TID 0000.0001) %MON dynstat_vvel_min             =  -1.1061834601459E-02
(PID.TID 0000.0001) %MON dynstat_vvel_mean            =  -2.4937366929595E-10
(PID.TID 0000.0001) %MON dynstat_vvel_sd              =   3.6344323326936E-03
(PID.TID 0000.0001) %MON dynstat_vvel_del2            =   1.1092119402221E-04
(PID.TID 0000.0001) %MON dynstat_wvel_max             =   1.8585746288263E-04
(PID.TID 0000.0001) %MON dynstat_wvel_min             =  -1.8593369671743E-04
(PID.TID 0000.0001) %MON dynstat_wvel_mean            =   2.0112815075007E-21
(PID.TID 0000.0001) %MON dynstat_wvel_sd              =   5.9913267745502E-05
(PID.TID 0000.0001) %MON dynstat_wvel_del2            =   6.4051087588917E-06
(PID.TID 0000.0001) %MON dynstat_theta_max            =   1.7020391872686E+01
(PID.TID 0000.0001) %MON dynstat_theta_min            =   1.6979608188987E+01
(PID.TID 0000.0001) %MON dynstat_theta_mean           =   1.6999999916865E+01
(PID.TID 0000.0001) %MON dynstat_theta_sd             =   1.8679861756413E-02
(PID.TID 0000.0001) %MON dynstat_theta_del2           =   1.9602232326320E-04
(PID.TID 0000.0001) %MON dynstat_salt_max             =   1.7020387109310E+01
(PID.TID 0000.0001) %MON dynstat_salt_min             =   1.6979612982850E+01
(PID.TID 0000.0001) %MON dynstat_salt_mean            =   1.7000000005832E+01
(PID.TID 0000.0001) %MON dynstat_salt_sd              =   1.8683468073540E-02
(PID.TID 0000.0001) %MON dynstat_salt_del2            =   1.9693419317329E-04
(PID.TID 0000.0001) %MON advcfl_uvel_max              =   3.1833458517313E-02
(PID.TID 0000.0001) %MON advcfl_vvel_max              =   1.3278463271373E-02
(PID.TID 0000.0001) %MON advcfl_wvel_max              =   4.4624087212183E-02
(PID.TID 0000.0001) %MON advcfl_W_hf_max              =   4.4624087212183E-02
(PID.TID 0000.0001) %MON pe_b_mean                    =   3.4179029597698E-09
(PID.TID 0000.0001) %MON ke_max                       =   3.9049325782936E-04
(PID.TID 0000.0001) %MON ke_mean                      =   2.3195174111631E-05
(PID.TID 0000.0001) %MON ke_vol                       =   2.5000000000000E+11
(PID.TID 0000.0001) %MON vort_r_min                   =  -8.9564078402842E-06
(PID.TID 0000.0001) %MON vort_r_max                   =   9.4907271405919E-06
(PID.TID 0000.0001) %MON vort_a_mean                  =   7.2900000000000E-05
(PID.TID 0000.0001) %MON vort_a_sd                    =   2.3800371774462E-06
(PID.TID 0000.0001) %MON vort_p_mean                  =   7.7363265306122E-05
(PID.TID 0000.0001) %MON vort_p_sd                    =   3.1019459341196E-05
(PID.TID 0000.0001) %MON surfExpan_theta_mean         =  -4.4510044480194E-13
(PID.TID 0000.0001) %MON surfExpan_salt_mean          =  -1.7896535260206E-16
(PID.TID 0000.0001) // =======================================================
(PID.TID 0000.0001) // End MONITOR dynamic field statistics
(PID.TID 0000.0001) // =======================================================
 cg2d: Sum(rhs),rhsMax =  -3.97520883398117E-13  8.10137037263402E-04
(PID.TID 0000.0001)                    cg2d_init_res =    1.05964802276899E-01
(PID.TID 0000.0001)                       cg2d_iters =    75
(PID.TID 0000.0001)                         cg2d_res =    9.96638137354089E-12
(PID.TID 0000.0001) // =======================================================
(PID.TID 0000.0001) // Begin MONITOR dynamic field statistics
(PID.TID 0000.0001) // =======================================================
(PID.TID 0000.0001) %MON time_tsnumber                =                    54
(PID.TID 0000.0001) %MON time_secondsf                =   6.4800000000000E+04
(PID.TID 0000.0001) %MON dynstat_eta_max              =   4.0167734763547E-04
(PID.TID 0000.0001) %MON dynstat_eta_min              =  -4.1382864907529E-04
(PID.TID 0000.0001) %MON dynstat_eta_mean             =   7.9222576642168E-17
(PID.TID 0000.0001) %MON dynstat_eta_sd               =   3.7331542820991E-04
(PID.TID 0000.0001) %MON dynstat_eta_del2             =   3.8747720048832E-06
(PID.TID 0000.0001) %MON dynstat_uvel_max             =   2.5386055171374E-02
(PID.TID 0000.0001) %MON dynstat_uvel_min             =  -2.5387887858272E-02
(PID.TID 0000.0001) %MON dynstat_uvel_mean            =  -9.1487920164805E-07
(PID.TID 0000.0001) %MON dynstat_uvel_sd              =   5.4940577407393E-03
(PID.TID 0000.0001) %MON dynstat_uvel_del2            =   1.9843454689776E-04
(PID.TID 0000.0001) %MON dynstat_vvel_max             =   1.1121597951017E-02
(PID.TID 0000.0001) %MON dynstat_vvel_min             =  -1.1118017762645E-02
(PID.TID 0000.0001) %MON dynstat_vvel_mean            =  -2.4628207202134E-10
(PID.TID 0000.0001) %MON dynstat_vvel_sd              =   3.6528795946139E-03
(PID.TID 0000.0001) %MON dynstat_vvel_del2            =   1.1088410751055E-04
(PID.TID 0000.0001) %MON dynstat_wvel_max             =   1.8676251191810E-04
(PID.TID 0000.0001) %MON dynstat_wvel_min             =  -1.8684164525805E-04
(PID.TID 0000.0001) %MON dynstat_wvel_mean            =   4.6803451304943E-21
(PID.TID 0000.0001) %MON dynstat_wvel_sd              =   6.0321014915176E-05
(PID.TID 0000.0001) %MON dynstat_wvel_del2            =   6.4051398983999E-06
(PID.TID 0000.0001) %MON dynstat_theta_max            =   1.7020391872686E+01
(PID.TID 0000.0001) %MON dynstat_theta_min            =   1.6979608188987E+01
(PID.TID 0000.0001) %MON dynstat_theta_mean           =   1.6999999916868E+01
(PID.TID 0000.0001) %MON dynstat_theta_sd             =   1.8679793804678E-02
(PID.TID 0000.0001) %MON dynstat_theta_del2           =   1.9603099695573E-04
(PID.TID 0000.0001) %MON dynstat_salt_max             =   1.7020387109310E+01
(PID.TID 0000.0001) %MON dynstat_salt_min             =   1.6979612982850E+01
(PID.TID 0000.0001) %MON dynstat_salt_mean            =   1.7000000005832E+01
(PID.TID 0000.0001) %MON dynstat_salt_sd              =   1.8683360585518E-02
(PID.TID 0000.0001) %MON dynstat_salt_del2            =   1.9746430385636E-04
(PID.TID 0000.0001) %MON advcfl_uvel_max              =   3.0465465429926E-02
(PID.TID 0000.0001) %MON advcfl_vvel_max              =   1.3345917541220E-02
(PID.TID 0000.0001) %MON advcfl_wvel_max              =   4.4841994861932E-02
(PID.TID 0000.0001) %MON advcfl_W_hf_max              =   4.4841994861932E-02
(PID.TID 0000.0001) %MON pe_b_mean                    =   3.4179121292425E-09
(PID.TID 0000.0001) %MON ke_max                       =   3.6189487360833E-04
(PID.TID 0000.0001) %MON ke_mean                      =   2.1497229727509E-05
(PID.TID 0000.0001) %MON ke_vol                       =   2.5000000000000E+11
(PID.TID 0000.0001) %MON vort_r_min                   =  -8.7477873163595E-06
(PID.TID 0000.0001) %MON vort_r_max                   =   9.2046780456828E-06
(PID.TID 0000.0001) %MON vort_a_mean                  =   7.2900000000000E-05
(PID.TID 0000.0001) %MON vort_a_sd                    =   2.3043888417126E-06
(PID.TID 0000.0001) %MON vort_p_mean                  =   7.7363265306123E-05
(PID.TID 0000.0001) %MON vort_p_sd                    =   3.1013397519463E-05
(PID.TID 0000.0001) %MON surfExpan_theta_mean         =  -3.9345000966753E-13
(PID.TID 0000.0001) %MON surfExpan_salt_mean          =  -2.9528791861062E-16
(PID.TID 0000.0001) // =======================================================
(PID.TID 0000.0001) // End MONITOR dynamic field statistics
(PID.TID 0000.0001) // =======================================================
 cg2d: Sum(rhs),rhsMax =  -4.28593033459379E-13  8.09468180415354E-04
(PID.TID 0000.0001)                    cg2d_init_res =    1.03902456659176E-01
(PID.TID 0000.0001)                       cg2d_iters =    74
(PID.TID 0000.0001)                         cg2d_res =    8.48641150555909E-12
(PID.TID 0000.0001) // =======================================================
(PID.TID 0000.0001) // Begin MONITOR dynamic field statistics
(PID.TID 0000.0001) // =======================================================
(PID.TID 0000.0001) %MON time_tsnumber                =                    55
(PID.TID 0000.0001) %MON time_secondsf                =   6.6000000000000E+04
(PID.TID 0000.0001) %MON dynstat_eta_max              =   4.0195843487521E-04
(PID.TID 0000.0001) %MON dynstat_eta_min              =  -4.1354756501689E-04
(PID.TID 0000.0001) %MON dynstat_eta_mean             =   7.9355308898466E-17
(PID.TID 0000.0001) %MON dynstat_eta_sd               =   3.7331785982098E-04
(PID.TID 0000.0001) %MON dynstat_eta_del2             =   3.8719977641678E-06
(PID.TID 0000.0001) %MON dynstat_uvel_max             =   2.4248076995514E-02
(PID.TID 0000.0001) %MON dynstat_uvel_min             =  -2.4249951450951E-02
(PID.TID 0000.0001) %MON dynstat_uvel_mean            =  -9.1487774554029E-07
(PID.TID 0000.0001) %MON dynstat_uvel_sd              =   5.1851797697650E-03
(PID.TID 0000.0001) %MON dynstat_uvel_del2            =   1.9443473504451E-04
(PID.TID 0000.0001) %MON dynstat_vvel_max             =   1.1091407500214E-02
(PID.TID 0000.0001) %MON dynstat_vvel_min             =  -1.1087802476710E-02
(PID.TID 0000.0001) %MON dynstat_vvel_mean            =  -2.4073779367382E-10
(PID.TID 0000.0001) %MON dynstat_vvel_sd              =   3.6425936670316E-03
(PID.TID 0000.0001) %MON dynstat_vvel_del2            =   1.1062304012872E-04
(PID.TID 0000.0001) %MON dynstat_wvel_max             =   1.8666216041644E-04
(PID.TID 0000.0001) %MON dynstat_wvel_min             =  -1.8674443476516E-04
(PID.TID 0000.0001) %MON dynstat_wvel_mean            =  -2.8328134533684E-21
(PID.TID 0000.0001) %MON dynstat_wvel_sd              =   6.0365966533056E-05
(PID.TID 0000.0001) %MON dynstat_wvel_del2            =   6.4068730536128E-06
(PID.TID 0000.0001) %MON dynstat_theta_max            =   1.7020391872686E+01
(PID.TID 0000.0001) %MON dynstat_theta_min            =   1.6979608188987E+01
(PID.TID 0000.0001) %MON dynstat_theta_mean           =   1.6999999916870E+01
(PID.TID 0000.0001) %MON dynstat_theta_sd             =   1.8679725282562E-02
(PID.TID 0000.0001) %MON dynstat_theta_del2           =   1.9603589062911E-04
(PID.TID 0000.0001) %MON dynstat_salt_max             =   1.7020387109310E+01
(PID.TID 0000.0001) %MON dynstat_salt_min             =   1.6979612982850E+01
(PID.TID 0000.0001) %MON dynstat_salt_mean            =   1.7000000005832E+01
(PID.TID 0000.0001) %MON dynstat_salt_sd              =   1.8682820620762E-02
(PID.TID 0000.0001) %MON dynstat_salt_del2            =   1.9862842543110E-04
(PID.TID 0000.0001) %MON advcfl_uvel_max              =   2.9099941741141E-02
(PID.TID 0000.0001) %MON advcfl_vvel_max              =   1.3309689000257E-02
(PID.TID 0000.0001) %MON advcfl_wvel_max              =   4.4818664343638E-02
(PID.TID 0000.0001) %MON advcfl_W_hf_max              =   4.4818664343638E-02
(PID.TID 0000.0001) %MON pe_b_mean                    =   3.4179566549137E-09
(PID.TID 0000.0001) %MON ke_max                       =   3.3376858500627E-04
(PID.TID 0000.0001) %MON ke_mean                      =   1.9811919579978E-05
(PID.TID 0000.0001) %MON ke_vol                       =   2.5000000000000E+11
(PID.TID 0000.0001) %MON vort_r_min                   =  -8.5390741233110E-06
(PID.TID 0000.0001) %MON vort_r_max                   =   8.9186649573027E-06
(PID.TID 0000.0001) %MON vort_a_mean                  =   7.2900000000000E-05
(PID.TID 0000.0001) %MON vort_a_sd                    =   2.2296510862875E-06
(PID.TID 0000.0001) %MON vort_p_mean                  =   7.7363265306122E-05
(PID.TID 0000.0001) %MON vort_p_sd                    =   3.1007599891954E-05
(PID.TID 0000.0001) %MON surfExpan_theta_mean         =  -3.3905993767411E-13
(PID.TID 0000.0001) %MON surfExpan_salt_mean          =  -1.2311946238298E-17
(PID.TID 0000.0001) // =======================================================
(PID.TID 0000.0001) // End MONITOR dynamic field statistics
(PID.TID 0000.0001) // =======================================================
 cg2d: Sum(rhs),rhsMax =  -3.95610356539872E-13  8.09420761988871E-04
(PID.TID 0000.0001)                    cg2d_init_res =    1.06488563463345E-01
(PID.TID 0000.0001)                       cg2d_iters =    79
(PID.TID 0000.0001)                         cg2d_res =    7.15963378104575E-12
(PID.TID 0000.0001) // =======================================================
(PID.TID 0000.0001) // Begin MONITOR dynamic field statistics
(PID.TID 0000.0001) // =======================================================
(PID.TID 0000.0001) %MON time_tsnumber                =                    56
(PID.TID 0000.0001) %MON time_secondsf                =   6.7200000000000E+04
(PID.TID 0000.0001) %MON dynstat_eta_max              =   4.0220186961108E-04
(PID.TID 0000.0001) %MON dynstat_eta_min              =  -4.1330413612774E-04
(PID.TID 0000.0001) %MON dynstat_eta_mean             =   7.3362654937625E-17
(PID.TID 0000.0001) %MON dynstat_eta_sd               =   3.7332187448574E-04
(PID.TID 0000.0001) %MON dynstat_eta_del2             =   3.8694186937454E-06
(PID.TID 0000.0001) %MON dynstat_uvel_max             =   2.3120522817646E-02
(PID.TID 0000.0001) %MON dynstat_uvel_min             =  -2.3122436837646E-02
(PID.TID 0000.0001) %MON dynstat_uvel_mean            =  -9.1487836340587E-07
(PID.TID 0000.0001) %MON dynstat_uvel_sd              =   4.8820647861288E-03
(PID.TID 0000.0001) %MON dynstat_uvel_del2            =   1.9056148317849E-04
(PID.TID 0000.0001) %MON dynstat_vvel_max             =   1.0975857485318E-02
(PID.TID 0000.0001) %MON dynstat_vvel_min             =  -1.0972231899794E-02
(PID.TID 0000.0001) %MON dynstat_vvel_mean            =  -2.3268118955591E-10
(PID.TID 0000.0001) %MON dynstat_vvel_sd              =   3.6037861869558E-03
(PID.TID 0000.0001) %MON dynstat_vvel_del2            =   1.1011230673526E-04
(PID.TID 0000.0001) %MON dynstat_wvel_max             =   1.8554985808554E-04
(PID.TID 0000.0001) %MON dynstat_wvel_min             =  -1.8564090936093E-04
(PID.TID 0000.0001) %MON dynstat_wvel_mean            =  -3.4528391839458E-21
(PID.TID 0000.0001) %MON dynstat_wvel_sd              =   6.0044384871042E-05
(PID.TID 0000.0001) %MON dynstat_wvel_del2            =   6.4107116202188E-06
(PID.TID 0000.0001) %MON dynstat_theta_max            =   1.7020391872686E+01
(PID.TID 0000.0001) %MON dynstat_theta_min            =   1.6979608188987E+01
(PID.TID 0000.0001) %MON dynstat_theta_mean           =   1.6999999916872E+01
(PID.TID 0000.0001) %MON dynstat_theta_sd             =   1.8679657613858E-02
(PID.TID 0000.0001) %MON dynstat_theta_del2           =   1.9603732219436E-04
(PID.TID 0000.0001) %MON dynstat_salt_max             =   1.7020387109310E+01
(PID.TID 0000.0001) %MON dynstat_salt_min             =   1.6979612982850E+01
(PID.TID 0000.0001) %MON dynstat_salt_mean            =   1.7000000005832E+01
(PID.TID 0000.0001) %MON dynstat_salt_sd              =   1.8682635090488E-02
(PID.TID 0000.0001) %MON dynstat_salt_del2            =   1.9962872548297E-04
(PID.TID 0000.0001) %MON advcfl_uvel_max              =   2.7746924205175E-02
(PID.TID 0000.0001) %MON advcfl_vvel_max              =   1.3171028982382E-02
(PID.TID 0000.0001) %MON advcfl_wvel_max              =   4.4553818246624E-02
(PID.TID 0000.0001) %MON advcfl_W_hf_max              =   4.4553818246624E-02
(PID.TID 0000.0001) %MON pe_b_mean                    =   3.4180301688032E-09
(PID.TID 0000.0001) %MON ke_max                       =   3.0630961315514E-04
(PID.TID 0000.0001) %MON ke_mean                      =   1.8151170649501E-05
(PID.TID 0000.0001) %MON ke_vol                       =   2.5000000000000E+11
(PID.TID 0000.0001) %MON vort_r_min                   =  -8.3317368238901E-06
(PID.TID 0000.0001) %MON vort_r_max                   =   8.6348596080726E-06
(PID.TID 0000.0001) %MON vort_a_mean                  =   7.2900000000000E-05
(PID.TID 0000.0001) %MON vort_a_sd                    =   2.1564304914856E-06
(PID.TID 0000.0001) %MON vort_p_mean                  =   7.7363265306122E-05
(PID.TID 0000.0001) %MON vort_p_sd                    =   3.1002104391042E-05
(PID.TID 0000.0001) %MON surfExpan_theta_mean         =  -2.8798790627225E-13
(PID.TID 0000.0001) %MON surfExpan_salt_mean          =  -2.7186372600321E-16
(PID.TID 0000.0001) // =======================================================
(PID.TID 0000.0001) // End MONITOR dynamic field statistics
(PID.TID 0000.0001) // =======================================================
 cg2d: Sum(rhs),rhsMax =  -2.70175049867094E-13  8.09137587551672E-04
(PID.TID 0000.0001)                    cg2d_init_res =    1.01295181920054E-01
(PID.TID 0000.0001)                       cg2d_iters =    78
(PID.TID 0000.0001)                         cg2d_res =    6.61526553342792E-12
(PID.TID 0000.0001) // =======================================================
(PID.TID 0000.0001) // Begin MONITOR dynamic field statistics
(PID.TID 0000.0001) // =======================================================
(PID.TID 0000.0001) %MON time_tsnumber                =                    57
(PID.TID 0000.0001) %MON time_secondsf                =   6.8400000000000E+04
(PID.TID 0000.0001) %MON dynstat_eta_max              =   4.0241472159401E-04
(PID.TID 0000.0001) %MON dynstat_eta_min              =  -4.1309128299137E-04
(PID.TID 0000.0001) %MON dynstat_eta_mean             =   9.0281892761168E-17
(PID.TID 0000.0001) %MON dynstat_eta_sd               =   3.7332732790308E-04
(PID.TID 0000.0001) %MON dynstat_eta_del2             =   3.8670429221498E-06
(PID.TID 0000.0001) %MON dynstat_uvel_max             =   2.2011575595562E-02
(PID.TID 0000.0001) %MON dynstat_uvel_min             =  -2.2013527139740E-02
(PID.TID 0000.0001) %MON dynstat_uvel_mean            =  -9.1488089738622E-07
(PID.TID 0000.0001) %MON dynstat_uvel_sd              =   4.5873560712911E-03
(PID.TID 0000.0001) %MON dynstat_uvel_del2            =   1.8701013788495E-04
(PID.TID 0000.0001) %MON dynstat_vvel_max             =   1.0776892053558E-02
(PID.TID 0000.0001) %MON dynstat_vvel_min             =  -1.0773346944620E-02
(PID.TID 0000.0001) %MON dynstat_vvel_mean            =  -2.2302227989365E-10
(PID.TID 0000.0001) %MON dynstat_vvel_sd              =   3.5369167020073E-03
(PID.TID 0000.0001) %MON dynstat_vvel_del2            =   1.0935829621538E-04
(PID.TID 0000.0001) %MON dynstat_wvel_max             =   1.8344159402028E-04
(PID.TID 0000.0001) %MON dynstat_wvel_min             =  -1.8353751928158E-04
(PID.TID 0000.0001) %MON dynstat_wvel_mean            =   1.3682094694044E-21
(PID.TID 0000.0001) %MON dynstat_wvel_sd              =   5.9359133116083E-05
(PID.TID 0000.0001) %MON dynstat_wvel_del2            =   6.4150279991729E-06
(PID.TID 0000.0001) %MON dynstat_theta_max            =   1.7020391872686E+01
(PID.TID 0000.0001) %MON dynstat_theta_min            =   1.6979608188987E+01
(PID.TID 0000.0001) %MON dynstat_theta_mean           =   1.6999999916873E+01
(PID.TID 0000.0001) %MON dynstat_theta_sd             =   1.8679590852244E-02
(PID.TID 0000.0001) %MON dynstat_theta_del2           =   1.9603557351378E-04
(PID.TID 0000.0001) %MON dynstat_salt_max             =   1.7020387109310E+01
(PID.TID 0000.0001) %MON dynstat_salt_min             =   1.6979612982850E+01
(PID.TID 0000.0001) %MON dynstat_salt_mean            =   1.7000000005832E+01
(PID.TID 0000.0001) %MON dynstat_salt_sd              =   1.8682429997416E-02
(PID.TID 0000.0001) %MON dynstat_salt_del2            =   2.0044099292770E-04
(PID.TID 0000.0001) %MON advcfl_uvel_max              =   2.6416232567688E-02
(PID.TID 0000.0001) %MON advcfl_vvel_max              =   1.2932270464270E-02
(PID.TID 0000.0001) %MON advcfl_wvel_max              =   4.4049004627579E-02
(PID.TID 0000.0001) %MON advcfl_W_hf_max              =   4.4049004627579E-02
(PID.TID 0000.0001) %MON pe_b_mean                    =   3.4181300294457E-09
(PID.TID 0000.0001) %MON ke_max                       =   2.7970642055652E-04
(PID.TID 0000.0001) %MON ke_mean                      =   1.6526612564239E-05
(PID.TID 0000.0001) %MON ke_vol                       =   2.5000000000000E+11
(PID.TID 0000.0001) %MON vort_r_min                   =  -8.1271255513242E-06
(PID.TID 0000.0001) %MON vort_r_max                   =   8.3552844746163E-06
(PID.TID 0000.0001) %MON vort_a_mean                  =   7.2900000000000E-05
(PID.TID 0000.0001) %MON vort_a_sd                    =   2.0852925569608E-06
(PID.TID 0000.0001) %MON vort_p_mean                  =   7.7363265306122E-05
(PID.TID 0000.0001) %MON vort_p_sd                    =   3.0996940137213E-05
(PID.TID 0000.0001) %MON surfExpan_theta_mean         =  -2.3367238325287E-13
(PID.TID 0000.0001) %MON surfExpan_salt_mean          =  -1.6151030573248E-16
(PID.TID 0000.0001) // =======================================================
(PID.TID 0000.0001) // End MONITOR dynamic field statistics
(PID.TID 0000.0001) // =======================================================
 cg2d: Sum(rhs),rhsMax =  -4.60178065358335E-13  8.08922261956395E-04
(PID.TID 0000.0001)                    cg2d_init_res =    9.87783702702923E-02
(PID.TID 0000.0001)                       cg2d_iters =    77
(PID.TID 0000.0001)                         cg2d_res =    9.65199797623901E-12
(PID.TID 0000.0001) // =======================================================
(PID.TID 0000.0001) // Begin MONITOR dynamic field statistics
(PID.TID 0000.0001) // =======================================================
(PID.TID 0000.0001) %MON time_tsnumber                =                    58
(PID.TID 0000.0001) %MON time_secondsf                =   6.9600000000000E+04
(PID.TID 0000.0001) %MON dynstat_eta_max              =   4.0259353167708E-04
(PID.TID 0000.0001) %MON dynstat_eta_min              =  -4.1291247578240E-04
(PID.TID 0000.0001) %MON dynstat_eta_mean             =   9.5333848211254E-17
(PID.TID 0000.0001) %MON dynstat_eta_sd               =   3.7333387169093E-04
(PID.TID 0000.0001) %MON dynstat_eta_del2             =   3.8648658726626E-06
(PID.TID 0000.0001) %MON dynstat_uvel_max             =   2.0929178793656E-02
(PID.TID 0000.0001) %MON dynstat_uvel_min             =  -2.0931166132218E-02
(PID.TID 0000.0001) %MON dynstat_uvel_mean            =  -9.1488511190466E-07
(PID.TID 0000.0001) %MON dynstat_uvel_sd              =   4.3036050000036E-03
(PID.TID 0000.0001) %MON dynstat_uvel_del2            =   1.8387782302140E-04
(PID.TID 0000.0001) %MON dynstat_vvel_max             =   1.0500706796066E-02
(PID.TID 0000.0001) %MON dynstat_vvel_min             =  -1.0497151971037E-02
(PID.TID 0000.0001) %MON dynstat_vvel_mean            =  -2.1155389158513E-10
(PID.TID 0000.0001) %MON dynstat_vvel_sd              =   3.4426882701893E-03
(PID.TID 0000.0001) %MON dynstat_vvel_del2            =   1.0835919492637E-04
(PID.TID 0000.0001) %MON dynstat_wvel_max             =   1.8035776076850E-04
(PID.TID 0000.0001) %MON dynstat_wvel_min             =  -1.8045712220271E-04
(PID.TID 0000.0001) %MON dynstat_wvel_mean            =   4.9655143354945E-21
(PID.TID 0000.0001) %MON dynstat_wvel_sd              =   5.8321067468251E-05
(PID.TID 0000.0001) %MON dynstat_wvel_del2            =   6.4191620612699E-06
(PID.TID 0000.0001) %MON dynstat_theta_max            =   1.7020391872686E+01
(PID.TID 0000.0001) %MON dynstat_theta_min            =   1.6979608188987E+01
(PID.TID 0000.0001) %MON dynstat_theta_mean           =   1.6999999916874E+01
(PID.TID 0000.0001) %MON dynstat_theta_sd             =   1.8679525460821E-02
(PID.TID 0000.0001) %MON dynstat_theta_del2           =   1.9603120111173E-04
(PID.TID 0000.0001) %MON dynstat_salt_max             =   1.7020387109310E+01
(PID.TID 0000.0001) %MON dynstat_salt_min             =   1.6979612982850E+01
(PID.TID 0000.0001) %MON dynstat_salt_mean            =   1.7000000005832E+01
(PID.TID 0000.0001) %MON dynstat_salt_sd              =   1.8682199769968E-02
(PID.TID 0000.0001) %MON dynstat_salt_del2            =   2.0128493230912E-04
(PID.TID 0000.0001) %MON advcfl_uvel_max              =   2.5117399358662E-02
(PID.TID 0000.0001) %MON advcfl_vvel_max              =   1.2600848155279E-02
(PID.TID 0000.0001) %MON advcfl_wvel_max              =   4.3309709328649E-02
(PID.TID 0000.0001) %MON advcfl_W_hf_max              =   4.3309709328649E-02
(PID.TID 0000.0001) %MON pe_b_mean                    =   3.4182498584115E-09
(PID.TID 0000.0001) %MON ke_max                       =   2.5413909225457E-04
(PID.TID 0000.0001) %MON ke_mean                      =   1.4949517628871E-05
(PID.TID 0000.0001) %MON ke_vol                       =   2.5000000000000E+11
(PID.TID 0000.0001) %MON vort_r_min                   =  -7.9265626325455E-06
(PID.TID 0000.0001) %MON vort_r_max                   =   8.0819024608195E-06
(PID.TID 0000.0001) %MON vort_a_mean                  =   7.2900000000000E-05
(PID.TID 0000.0001) %MON vort_a_sd                    =   2.0167550363458E-06
(PID.TID 0000.0001) %MON vort_p_mean                  =   7.7363265306123E-05
(PID.TID 0000.0001) %MON vort_p_sd                    =   3.0992127834601E-05
(PID.TID 0000.0001) %MON surfExpan_theta_mean         =  -1.8413675548784E-13
(PID.TID 0000.0001) %MON surfExpan_salt_mean          =  -1.2223707473031E-16
(PID.TID 0000.0001) // =======================================================
(PID.TID 0000.0001) // End MONITOR dynamic field statistics
(PID.TID 0000.0001) // =======================================================
 cg2d: Sum(rhs),rhsMax =  -4.30345483640876E-13  8.08833157540213E-04
(PID.TID 0000.0001)                    cg2d_init_res =    9.68406601777682E-02
(PID.TID 0000.0001)                       cg2d_iters =    77
(PID.TID 0000.0001)                         cg2d_res =    9.61092660860984E-12
(PID.TID 0000.0001) // =======================================================
(PID.TID 0000.0001) // Begin MONITOR dynamic field statistics
(PID.TID 0000.0001) // =======================================================
(PID.TID 0000.0001) %MON time_tsnumber                =                    59
(PID.TID 0000.0001) %MON time_secondsf                =   7.0800000000000E+04
(PID.TID 0000.0001) %MON dynstat_eta_max              =   4.0273812881228E-04
(PID.TID 0000.0001) %MON dynstat_eta_min              =  -4.1276788011449E-04
(PID.TID 0000.0001) %MON dynstat_eta_mean             =   1.0457528664742E-16
(PID.TID 0000.0001) %MON dynstat_eta_sd               =   3.7334120183673E-04
(PID.TID 0000.0001) %MON dynstat_eta_del2             =   3.8628777568177E-06
(PID.TID 0000.0001) %MON dynstat_uvel_max             =   1.9880979715485E-02
(PID.TID 0000.0001) %MON dynstat_uvel_min             =  -1.9883001177138E-02
(PID.TID 0000.0001) %MON dynstat_uvel_mean            =  -9.1489063615592E-07
(PID.TID 0000.0001) %MON dynstat_uvel_sd              =   4.0332262460793E-03
(PID.TID 0000.0001) %MON dynstat_uvel_del2            =   1.8114372553541E-04
(PID.TID 0000.0001) %MON dynstat_vvel_max             =   1.0146669874928E-02
(PID.TID 0000.0001) %MON dynstat_vvel_min             =  -1.0143109333756E-02
(PID.TID 0000.0001) %MON dynstat_vvel_mean            =  -1.9868197624884E-10
(PID.TID 0000.0001) %MON dynstat_vvel_sd              =   3.3220378711777E-03
(PID.TID 0000.0001) %MON dynstat_vvel_del2            =   1.0713270586283E-04
(PID.TID 0000.0001) %MON dynstat_wvel_max             =   1.7632770934949E-04
(PID.TID 0000.0001) %MON dynstat_wvel_min             =  -1.7643027156852E-04
(PID.TID 0000.0001) %MON dynstat_wvel_mean            =  -2.3631860667983E-21
(PID.TID 0000.0001) %MON dynstat_wvel_sd              =   5.6948138214896E-05
(PID.TID 0000.0001) %MON dynstat_wvel_del2            =   6.4225546784227E-06
(PID.TID 0000.0001) %MON dynstat_theta_max            =   1.7020391872686E+01
(PID.TID 0000.0001) %MON dynstat_theta_min            =   1.6979608188988E+01
(PID.TID 0000.0001) %MON dynstat_theta_mean           =   1.6999999916875E+01
(PID.TID 0000.0001) %MON dynstat_theta_sd             =   1.8679461964663E-02
(PID.TID 0000.0001) %MON dynstat_theta_del2           =   1.9602493533573E-04
(PID.TID 0000.0001) %MON dynstat_salt_max             =   1.7020387109310E+01
(PID.TID 0000.0001) %MON dynstat_salt_min             =   1.6979612982850E+01
(PID.TID 0000.0001) %MON dynstat_salt_mean            =   1.7000000005832E+01
(PID.TID 0000.0001) %MON dynstat_salt_sd              =   1.8681944060365E-02
(PID.TID 0000.0001) %MON dynstat_salt_del2            =   2.0218832762221E-04
(PID.TID 0000.0001) %MON advcfl_uvel_max              =   2.3859601412566E-02
(PID.TID 0000.0001) %MON advcfl_vvel_max              =   1.2176003849914E-02
(PID.TID 0000.0001) %MON advcfl_wvel_max              =   4.2343265176445E-02
(PID.TID 0000.0001) %MON advcfl_W_hf_max              =   4.2343265176445E-02
(PID.TID 0000.0001) %MON pe_b_mean                    =   3.4183840895526E-09
(PID.TID 0000.0001) %MON ke_max                       =   2.2977777233796E-04
(PID.TID 0000.0001) %MON ke_mean                      =   1.3430706490962E-05
(PID.TID 0000.0001) %MON ke_vol                       =   2.5000000000000E+11
(PID.TID 0000.0001) %MON vort_r_min                   =  -7.7312721707308E-06
(PID.TID 0000.0001) %MON vort_r_max                   =   7.8165573994401E-06
(PID.TID 0000.0001) %MON vort_a_mean                  =   7.2900000000000E-05
(PID.TID 0000.0001) %MON vort_a_sd                    =   1.9512801351423E-06
(PID.TID 0000.0001) %MON vort_p_mean                  =   7.7363265306123E-05
(PID.TID 0000.0001) %MON vort_p_sd                    =   3.0987680222597E-05
(PID.TID 0000.0001) %MON surfExpan_theta_mean         =  -1.3908761174943E-13
(PID.TID 0000.0001) %MON surfExpan_salt_mean          =  -1.0967295109552E-16
(PID.TID 0000.0001) // =======================================================
(PID.TID 0000.0001) // End MONITOR dynamic field statistics
(PID.TID 0000.0001) // =======================================================
 cg2d: Sum(rhs),rhsMax =  -5.62193249852710E-13  8.08886538011900E-04
(PID.TID 0000.0001)                    cg2d_init_res =    9.52192255923656E-02
(PID.TID 0000.0001)                       cg2d_iters =    77
(PID.TID 0000.0001)                         cg2d_res =    9.00907247127297E-12
(PID.TID 0000.0001) // =======================================================
(PID.TID 0000.0001) // Begin MONITOR dynamic field statistics
(PID.TID 0000.0001) // =======================================================
(PID.TID 0000.0001) %MON time_tsnumber                =                    60
(PID.TID 0000.0001) %MON time_secondsf                =   7.2000000000000E+04
(PID.TID 0000.0001) %MON dynstat_eta_max              =   4.0284977693290E-04
(PID.TID 0000.0001) %MON dynstat_eta_min              =  -4.1265623310621E-04
(PID.TID 0000.0001) %MON dynstat_eta_mean             =   1.0096511498081E-16
(PID.TID 0000.0001) %MON dynstat_eta_sd               =   3.7334903165222E-04
(PID.TID 0000.0001) %MON dynstat_eta_del2             =   3.8610631268523E-06
(PID.TID 0000.0001) %MON dynstat_uvel_max             =   1.8874275686577E-02
(PID.TID 0000.0001) %MON dynstat_uvel_min             =  -1.8876329669084E-02
(PID.TID 0000.0001) %MON dynstat_uvel_mean            =  -9.1489714174264E-07
(PID.TID 0000.0001) %MON dynstat_uvel_sd              =   3.7784453407924E-03
(PID.TID 0000.0001) %MON dynstat_uvel_del2            =   1.7877690840866E-04
(PID.TID 0000.0001) %MON dynstat_vvel_max             =   9.7181445783770E-03
(PID.TID 0000.0001) %MON dynstat_vvel_min             =  -9.7145822504685E-03
(PID.TID 0000.0001) %MON dynstat_vvel_mean            =  -1.8475694640677E-10
(PID.TID 0000.0001) %MON dynstat_vvel_sd              =   3.1761309955576E-03
(PID.TID 0000.0001) %MON dynstat_vvel_del2            =   1.0569385880141E-04
(PID.TID 0000.0001) %MON dynstat_wvel_max             =   1.7138868834731E-04
(PID.TID 0000.0001) %MON dynstat_wvel_min             =  -1.7149425597304E-04
(PID.TID 0000.0001) %MON dynstat_wvel_mean            =   3.0983014664710E-23
(PID.TID 0000.0001) %MON dynstat_wvel_sd              =   5.5265396770831E-05
(PID.TID 0000.0001) %MON dynstat_wvel_del2            =   6.4246752188135E-06
(PID.TID 0000.0001) %MON dynstat_theta_max            =   1.7020391872686E+01
(PID.TID 0000.0001) %MON dynstat_theta_min            =   1.6979608188988E+01
(PID.TID 0000.0001) %MON dynstat_theta_mean           =   1.6999999916876E+01
(PID.TID 0000.0001) %MON dynstat_theta_sd             =   1.8679400926975E-02
(PID.TID 0000.0001) %MON dynstat_theta_del2           =   1.9601763309940E-04
(PID.TID 0000.0001) %MON dynstat_salt_max             =   1.7020387109310E+01
(PID.TID 0000.0001) %MON dynstat_salt_min             =   1.6979612982850E+01
(PID.TID 0000.0001) %MON dynstat_salt_mean            =   1.7000000005832E+01
(PID.TID 0000.0001) %MON dynstat_salt_sd              =   1.8681664698387E-02
(PID.TID 0000.0001) %MON dynstat_salt_del2            =   2.0315253314496E-04
(PID.TID 0000.0001) %MON advcfl_uvel_max              =   2.2651595602901E-02
(PID.TID 0000.0001) %MON advcfl_vvel_max              =   1.1661773494052E-02
(PID.TID 0000.0001) %MON advcfl_wvel_max              =   4.1158621433531E-02
(PID.TID 0000.0001) %MON advcfl_W_hf_max              =   4.1158621433531E-02
(PID.TID 0000.0001) %MON pe_b_mean                    =   3.4185274736594E-09
(PID.TID 0000.0001) %MON ke_max                       =   2.0678127394976E-04
(PID.TID 0000.0001) %MON ke_mean                      =   1.1980472903648E-05
(PID.TID 0000.0001) %MON ke_vol                       =   2.5000000000000E+11
(PID.TID 0000.0001) %MON vort_r_min                   =  -7.5423877532074E-06
(PID.TID 0000.0001) %MON vort_r_max                   =   7.5609724952533E-06
(PID.TID 0000.0001) %MON vort_a_mean                  =   7.2900000000001E-05
(PID.TID 0000.0001) %MON vort_a_sd                    =   1.8892676756249E-06
(PID.TID 0000.0001) %MON vort_p_mean                  =   7.7363265306124E-05
(PID.TID 0000.0001) %MON vort_p_sd                    =   3.0983602728786E-05
(PID.TID 0000.0001) %MON surfExpan_theta_mean         =  -9.9242449362336E-14
(PID.TID 0000.0001) %MON surfExpan_salt_mean          =  -9.6214978340122E-17
(PID.TID 0000.0001) // =======================================================
(PID.TID 0000.0001) // End MONITOR dynamic field statistics
(PID.TID 0000.0001) // =======================================================
 cg2d: Sum(rhs),rhsMax =  -5.13135053111652E-13  8.09082895866350E-04
(PID.TID 0000.0001)                    cg2d_init_res =    9.37341757954183E-02
(PID.TID 0000.0001)                       cg2d_iters =    77
(PID.TID 0000.0001)                         cg2d_res =    7.81033205204626E-12
(PID.TID 0000.0001) // =======================================================
(PID.TID 0000.0001) // Begin MONITOR dynamic field statistics
(PID.TID 0000.0001) // =======================================================
(PID.TID 0000.0001) %MON time_tsnumber                =                    61
(PID.TID 0000.0001) %MON time_secondsf                =   7.3200000000000E+04
(PID.TID 0000.0001) %MON dynstat_eta_max              =   4.0293065475076E-04
(PID.TID 0000.0001) %MON dynstat_eta_min              =  -4.1257535656328E-04
(PID.TID 0000.0001) %MON dynstat_eta_mean             =   9.8211145795335E-17
(PID.TID 0000.0001) %MON dynstat_eta_sd               =   3.7335709487631E-04
(PID.TID 0000.0001) %MON dynstat_eta_del2             =   3.8594015706937E-06
(PID.TID 0000.0001) %MON dynstat_uvel_max             =   1.7915963238041E-02
(PID.TID 0000.0001) %MON dynstat_uvel_min             =  -1.7918048191623E-02
(PID.TID 0000.0001) %MON dynstat_uvel_mean            =  -9.1490429657182E-07
(PID.TID 0000.0001) %MON dynstat_uvel_sd              =   3.5412368448257E-03
(PID.TID 0000.0001) %MON dynstat_uvel_del2            =   1.7672355428718E-04
(PID.TID 0000.0001) %MON dynstat_vvel_max             =   9.2190240798595E-03
(PID.TID 0000.0001) %MON dynstat_vvel_min             =  -9.2154637513185E-03
(PID.TID 0000.0001) %MON dynstat_vvel_mean            =  -1.7004392158670E-10
(PID.TID 0000.0001) %MON dynstat_vvel_sd              =   3.0063587012640E-03
(PID.TID 0000.0001) %MON dynstat_vvel_del2            =   1.0410145035191E-04
(PID.TID 0000.0001) %MON dynstat_wvel_max             =   1.6558434894640E-04
(PID.TID 0000.0001) %MON dynstat_wvel_min             =  -1.6569273582285E-04
(PID.TID 0000.0001) %MON dynstat_wvel_mean            =  -9.5380684405858E-23
(PID.TID 0000.0001) %MON dynstat_wvel_sd              =   5.3305285357226E-05
(PID.TID 0000.0001) %MON dynstat_wvel_del2            =   6.4252343646933E-06
(PID.TID 0000.0001) %MON dynstat_theta_max            =   1.7020391872686E+01
(PID.TID 0000.0001) %MON dynstat_theta_min            =   1.6979608188996E+01
(PID.TID 0000.0001) %MON dynstat_theta_mean           =   1.6999999916876E+01
(PID.TID 0000.0001) %MON dynstat_theta_sd             =   1.8679342909388E-02
(PID.TID 0000.0001) %MON dynstat_theta_del2           =   1.9601023535992E-04
(PID.TID 0000.0001) %MON dynstat_salt_max             =   1.7020387109310E+01
(PID.TID 0000.0001) %MON dynstat_salt_min             =   1.6979612982850E+01
(PID.TID 0000.0001) %MON dynstat_salt_mean            =   1.7000000005832E+01
(PID.TID 0000.0001) %MON dynstat_salt_sd              =   1.8681366002687E-02
(PID.TID 0000.0001) %MON dynstat_salt_del2            =   2.0415627355178E-04
(PID.TID 0000.0001) %MON advcfl_uvel_max              =   2.1501657829948E-02
(PID.TID 0000.0001) %MON advcfl_vvel_max              =   1.1062828895831E-02
(PID.TID 0000.0001) %MON advcfl_wvel_max              =   3.9766256597484E-02
(PID.TID 0000.0001) %MON advcfl_W_hf_max              =   3.9766256597484E-02
(PID.TID 0000.0001) %MON pe_b_mean                    =   3.4186751352221E-09
(PID.TID 0000.0001) %MON ke_max                       =   1.8529582605638E-04
(PID.TID 0000.0001) %MON ke_mean                      =   1.0608512081620E-05
(PID.TID 0000.0001) %MON ke_vol                       =   2.5000000000000E+11
(PID.TID 0000.0001) %MON vort_r_min                   =  -7.3609487694541E-06
(PID.TID 0000.0001) %MON vort_r_max                   =   7.3608545553251E-06
(PID.TID 0000.0001) %MON vort_a_mean                  =   7.2900000000001E-05
(PID.TID 0000.0001) %MON vort_a_sd                    =   1.8310496538012E-06
(PID.TID 0000.0001) %MON vort_p_mean                  =   7.7363265306123E-05
(PID.TID 0000.0001) %MON vort_p_sd                    =   3.0979894261868E-05
(PID.TID 0000.0001) %MON surfExpan_theta_mean         =  -6.5132897447267E-14
(PID.TID 0000.0001) %MON surfExpan_salt_mean          =  -8.1442359523039E-17
(PID.TID 0000.0001) // =======================================================
(PID.TID 0000.0001) // End MONITOR dynamic field statistics
(PID.TID 0000.0001) // =======================================================
 cg2d: Sum(rhs),rhsMax =  -4.34353670652338E-13  8.09418555183856E-04
(PID.TID 0000.0001)                    cg2d_init_res =    9.22548351927548E-02
(PID.TID 0000.0001)                       cg2d_iters =    76
(PID.TID 0000.0001)                         cg2d_res =    8.82514707708152E-12
(PID.TID 0000.0001) // =======================================================
(PID.TID 0000.0001) // Begin MONITOR dynamic field statistics
(PID.TID 0000.0001) // =======================================================
(PID.TID 0000.0001) %MON time_tsnumber                =                    62
(PID.TID 0000.0001) %MON time_secondsf                =   7.4400000000000E+04
(PID.TID 0000.0001) %MON dynstat_eta_max              =   4.0298363489003E-04
(PID.TID 0000.0001) %MON dynstat_eta_min              =  -4.1252237810775E-04
(PID.TID 0000.0001) %MON dynstat_eta_mean             =   9.6465364153309E-17
(PID.TID 0000.0001) %MON dynstat_eta_sd               =   3.7336514802079E-04
(PID.TID 0000.0001) %MON dynstat_eta_del2             =   3.8578690630801E-06
(PID.TID 0000.0001) %MON dynstat_uvel_max             =   1.7012490966863E-02
(PID.TID 0000.0001) %MON dynstat_uvel_min             =  -1.7014605386000E-02
(PID.TID 0000.0001) %MON dynstat_uvel_mean            =  -9.1491177920604E-07
(PID.TID 0000.0001) %MON dynstat_uvel_sd              =   3.3232546701122E-03
(PID.TID 0000.0001) %MON dynstat_uvel_del2            =   1.7482556015599E-04
(PID.TID 0000.0001) %MON dynstat_vvel_max             =   8.6537037091475E-03
(PID.TID 0000.0001) %MON dynstat_vvel_min             =  -8.6501489214733E-03
(PID.TID 0000.0001) %MON dynstat_vvel_mean            =  -1.5477362817381E-10
(PID.TID 0000.0001) %MON dynstat_vvel_sd              =   2.8143391304682E-03
(PID.TID 0000.0001) %MON dynstat_vvel_del2            =   1.0234648892950E-04
(PID.TID 0000.0001) %MON dynstat_wvel_max             =   1.5896441186924E-04
(PID.TID 0000.0001) %MON dynstat_wvel_min             =  -1.5907543990658E-04
(PID.TID 0000.0001) %MON dynstat_wvel_mean            =  -7.9402936961812E-22
(PID.TID 0000.0001) %MON dynstat_wvel_sd              =   5.1108234644268E-05
(PID.TID 0000.0001) %MON dynstat_wvel_del2            =   6.4240804694150E-06
(PID.TID 0000.0001) %MON dynstat_theta_max            =   1.7020391872686E+01
(PID.TID 0000.0001) %MON dynstat_theta_min            =   1.6979608189001E+01
(PID.TID 0000.0001) %MON dynstat_theta_mean           =   1.6999999916877E+01
(PID.TID 0000.0001) %MON dynstat_theta_sd             =   1.8679288362375E-02
(PID.TID 0000.0001) %MON dynstat_theta_del2           =   1.9600372673534E-04
(PID.TID 0000.0001) %MON dynstat_salt_max             =   1.7020387109310E+01
(PID.TID 0000.0001) %MON dynstat_salt_min             =   1.6979612982850E+01
(PID.TID 0000.0001) %MON dynstat_salt_mean            =   1.7000000005832E+01
(PID.TID 0000.0001) %MON dynstat_salt_sd              =   1.8681056124889E-02
(PID.TID 0000.0001) %MON dynstat_salt_del2            =   2.0519322241089E-04
(PID.TID 0000.0001) %MON advcfl_uvel_max              =   2.0417526463200E-02
(PID.TID 0000.0001) %MON advcfl_vvel_max              =   1.0384444450977E-02
(PID.TID 0000.0001) %MON advcfl_wvel_max              =   3.8178105577578E-02
(PID.TID 0000.0001) %MON advcfl_W_hf_max              =   3.8178105577578E-02
(PID.TID 0000.0001) %MON pe_b_mean                    =   3.4188226153803E-09
(PID.TID 0000.0001) %MON ke_max                       =   1.6545398709662E-04
(PID.TID 0000.0001) %MON ke_mean                      =   9.3238534955597E-06
(PID.TID 0000.0001) %MON ke_vol                       =   2.5000000000000E+11
(PID.TID 0000.0001) %MON vort_r_min                   =  -7.1879011272742E-06
(PID.TID 0000.0001) %MON vort_r_max                   =   7.2052217222679E-06
(PID.TID 0000.0001) %MON vort_a_mean                  =   7.2900000000000E-05
(PID.TID 0000.0001) %MON vort_a_sd                    =   1.7768865992475E-06
(PID.TID 0000.0001) %MON vort_p_mean                  =   7.7363265306122E-05
(PID.TID 0000.0001) %MON vort_p_sd                    =   3.0976548115246E-05
(PID.TID 0000.0001) %MON surfExpan_theta_mean         =  -3.4705457625136E-14
(PID.TID 0000.0001) %MON surfExpan_salt_mean          =   6.7750540007791E-17
(PID.TID 0000.0001) // =======================================================
(PID.TID 0000.0001) // End MONITOR dynamic field statistics
(PID.TID 0000.0001) // =======================================================
 cg2d: Sum(rhs),rhsMax =  -5.76939646231012E-13  8.09917736049068E-04
(PID.TID 0000.0001)                    cg2d_init_res =    9.12682048469020E-02
(PID.TID 0000.0001)                       cg2d_iters =    76
(PID.TID 0000.0001)                         cg2d_res =    9.38180247367422E-12
(PID.TID 0000.0001) // =======================================================
(PID.TID 0000.0001) // Begin MONITOR dynamic field statistics
(PID.TID 0000.0001) // =======================================================
(PID.TID 0000.0001) %MON time_tsnumber                =                    63
(PID.TID 0000.0001) %MON time_secondsf                =   7.5600000000000E+04
(PID.TID 0000.0001) %MON dynstat_eta_max              =   4.0301188877913E-04
(PID.TID 0000.0001) %MON dynstat_eta_min              =  -4.1249412660732E-04
(PID.TID 0000.0001) %MON dynstat_eta_mean             =   1.0510165811939E-16
(PID.TID 0000.0001) %MON dynstat_eta_sd               =   3.7337296944630E-04
(PID.TID 0000.0001) %MON dynstat_eta_del2             =   3.8564379985769E-06
(PID.TID 0000.0001) %MON dynstat_uvel_max             =   1.6169816424104E-02
(PID.TID 0000.0001) %MON dynstat_uvel_min             =  -1.6171958827984E-02
(PID.TID 0000.0001) %MON dynstat_uvel_mean            =  -9.1491929042511E-07
(PID.TID 0000.0001) %MON dynstat_uvel_sd              =   3.1257593331976E-03
(PID.TID 0000.0001) %MON dynstat_uvel_del2            =   1.7302012811022E-04
(PID.TID 0000.0001) %MON dynstat_vvel_max             =   8.0270563646231E-03
(PID.TID 0000.0001) %MON dynstat_vvel_min             =  -8.0235101733794E-03
(PID.TID 0000.0001) %MON dynstat_vvel_mean            =  -1.3914275143759E-10
(PID.TID 0000.0001) %MON dynstat_vvel_sd              =   2.6019273068467E-03
(PID.TID 0000.0001) %MON dynstat_vvel_del2            =   1.0048299710289E-04
(PID.TID 0000.0001) %MON dynstat_wvel_max             =   1.5158470198635E-04
(PID.TID 0000.0001) %MON dynstat_wvel_min             =  -1.5169819156386E-04
(PID.TID 0000.0001) %MON dynstat_wvel_mean            =  -3.8213265400303E-22
(PID.TID 0000.0001) %MON dynstat_wvel_sd              =   4.8723589561650E-05
(PID.TID 0000.0001) %MON dynstat_wvel_del2            =   6.4211427058767E-06
(PID.TID 0000.0001) %MON dynstat_theta_max            =   1.7020391872686E+01
(PID.TID 0000.0001) %MON dynstat_theta_min            =   1.6979608189004E+01
(PID.TID 0000.0001) %MON dynstat_theta_mean           =   1.6999999916877E+01
(PID.TID 0000.0001) %MON dynstat_theta_sd             =   1.8679239140788E-02
(PID.TID 0000.0001) %MON dynstat_theta_del2           =   1.9599909774413E-04
(PID.TID 0000.0001) %MON dynstat_salt_max             =   1.7020387109310E+01
(PID.TID 0000.0001) %MON dynstat_salt_min             =   1.6979612982850E+01
(PID.TID 0000.0001) %MON dynstat_salt_mean            =   1.7000000005832E+01
(PID.TID 0000.0001) %MON dynstat_salt_sd              =   1.8681013390608E-02
(PID.TID 0000.0001) %MON dynstat_salt_del2            =   2.0576131948837E-04
(PID.TID 0000.0001) %MON advcfl_uvel_max              =   1.9406350593580E-02
(PID.TID 0000.0001) %MON advcfl_vvel_max              =   9.6324676375477E-03
(PID.TID 0000.0001) %MON advcfl_wvel_max              =   3.6407565975328E-02
(PID.TID 0000.0001) %MON advcfl_W_hf_max              =   3.6407565975328E-02
(PID.TID 0000.0001) %MON pe_b_mean                    =   3.4189658550300E-09
(PID.TID 0000.0001) %MON ke_max                       =   1.4737372949104E-04
(PID.TID 0000.0001) %MON ke_mean                      =   8.1347984639295E-06
(PID.TID 0000.0001) %MON ke_vol                       =   2.5000000000000E+11
(PID.TID 0000.0001) %MON vort_r_min                   =  -7.0241052068042E-06
(PID.TID 0000.0001) %MON vort_r_max                   =   7.0590725158541E-06
(PID.TID 0000.0001) %MON vort_a_mean                  =   7.2900000000000E-05
(PID.TID 0000.0001) %MON vort_a_sd                    =   1.7269662749250E-06
(PID.TID 0000.0001) %MON vort_p_mean                  =   7.7363265306122E-05
(PID.TID 0000.0001) %MON vort_p_sd                    =   3.0973552947441E-05
(PID.TID 0000.0001) %MON surfExpan_theta_mean         =  -1.2246143706243E-14
(PID.TID 0000.0001) %MON surfExpan_salt_mean          =  -3.8999919462152E-17
(PID.TID 0000.0001) // =======================================================
(PID.TID 0000.0001) // End MONITOR dynamic field statistics
(PID.TID 0000.0001) // =======================================================
 cg2d: Sum(rhs),rhsMax =  -5.30194594824951E-13  8.09722942708795E-04
(PID.TID 0000.0001)                    cg2d_init_res =    7.26021900536076E-02
(PID.TID 0000.0001)                       cg2d_iters =    82
(PID.TID 0000.0001)                         cg2d_res =    7.31501083376075E-12
(PID.TID 0000.0001) // =======================================================
(PID.TID 0000.0001) // Begin MONITOR dynamic field statistics
(PID.TID 0000.0001) // =======================================================
(PID.TID 0000.0001) %MON time_tsnumber                =                    64
(PID.TID 0000.0001) %MON time_secondsf                =   7.6800000000000E+04
(PID.TID 0000.0001) %MON dynstat_eta_max              =   4.0302584797388E-04
(PID.TID 0000.0001) %MON dynstat_eta_min              =  -4.1248016478729E-04
(PID.TID 0000.0001) %MON dynstat_eta_mean             =   1.0569545166261E-16
(PID.TID 0000.0001) %MON dynstat_eta_sd               =   3.7338040924557E-04
(PID.TID 0000.0001) %MON dynstat_eta_del2             =   3.8550796023547E-06
(PID.TID 0000.0001) %MON dynstat_uvel_max             =   1.5393367336187E-02
(PID.TID 0000.0001) %MON dynstat_uvel_min             =  -1.5395536261084E-02
(PID.TID 0000.0001) %MON dynstat_uvel_mean            =  -9.1492655878140E-07
(PID.TID 0000.0001) %MON dynstat_uvel_sd              =   2.9495514340131E-03
(PID.TID 0000.0001) %MON dynstat_uvel_del2            =   1.7128996624985E-04
(PID.TID 0000.0001) %MON dynstat_vvel_max             =   7.3443812609053E-03
(PID.TID 0000.0001) %MON dynstat_vvel_min             =  -7.3408463026456E-03
(PID.TID 0000.0001) %MON dynstat_vvel_mean            =  -1.2327671623337E-10
(PID.TID 0000.0001) %MON dynstat_vvel_sd              =   2.3712388786244E-03
(PID.TID 0000.0001) %MON dynstat_vvel_del2            =   9.8566620527677E-05
(PID.TID 0000.0001) %MON dynstat_wvel_max             =   1.4353259458997E-04
(PID.TID 0000.0001) %MON dynstat_wvel_min             =  -1.4364692391640E-04
(PID.TID 0000.0001) %MON dynstat_wvel_mean            =  -1.5517586970365E-21
(PID.TID 0000.0001) %MON dynstat_wvel_sd              =   4.6210792328423E-05
(PID.TID 0000.0001) %MON dynstat_wvel_del2            =   6.4164376183641E-06
(PID.TID 0000.0001) %MON dynstat_theta_max            =   1.7020391872686E+01
(PID.TID 0000.0001) %MON dynstat_theta_min            =   1.6979608189008E+01
(PID.TID 0000.0001) %MON dynstat_theta_mean           =   1.6999999916877E+01
(PID.TID 0000.0001) %MON dynstat_theta_sd             =   1.8679194525671E-02
(PID.TID 0000.0001) %MON dynstat_theta_del2           =   1.9599723868550E-04
(PID.TID 0000.0001) %MON dynstat_salt_max             =   1.7020387109310E+01
(PID.TID 0000.0001) %MON dynstat_salt_min             =   1.6979612982850E+01
(PID.TID 0000.0001) %MON dynstat_salt_mean            =   1.7000000005832E+01
(PID.TID 0000.0001) %MON dynstat_salt_sd              =   1.8680969671626E-02
(PID.TID 0000.0001) %MON dynstat_salt_del2            =   2.0604507397581E-04
(PID.TID 0000.0001) %MON advcfl_uvel_max              =   1.8474643513301E-02
(PID.TID 0000.0001) %MON advcfl_vvel_max              =   8.8132575130864E-03
(PID.TID 0000.0001) %MON advcfl_wvel_max              =   3.4475261739935E-02
(PID.TID 0000.0001) %MON advcfl_W_hf_max              =   3.4475261739935E-02
(PID.TID 0000.0001) %MON pe_b_mean                    =   3.4191021084558E-09
(PID.TID 0000.0001) %MON ke_max                       =   1.3115823414066E-04
(PID.TID 0000.0001) %MON ke_mean                      =   7.0488586828497E-06
(PID.TID 0000.0001) %MON ke_vol                       =   2.5000000000000E+11
(PID.TID 0000.0001) %MON vort_r_min                   =  -6.8703588668445E-06
(PID.TID 0000.0001) %MON vort_r_max                   =   6.9232069465487E-06
(PID.TID 0000.0001) %MON vort_a_mean                  =   7.2900000000000E-05
(PID.TID 0000.0001) %MON vort_a_sd                    =   1.6814051675771E-06
(PID.TID 0000.0001) %MON vort_p_mean                  =   7.7363265306122E-05
(PID.TID 0000.0001) %MON vort_p_sd                    =   3.0970893806519E-05
(PID.TID 0000.0001) %MON surfExpan_theta_mean         =   6.8971907231209E-15
(PID.TID 0000.0001) %MON surfExpan_salt_mean          =   1.2335276770874E-16
(PID.TID 0000.0001) // =======================================================
(PID.TID 0000.0001) // End MONITOR dynamic field statistics
(PID.TID 0000.0001) // =======================================================
 cg2d: Sum(rhs),rhsMax =  -5.94321629670408E-13  8.09379255228190E-04
(PID.TID 0000.0001)                    cg2d_init_res =    6.32720478331263E-02
(PID.TID 0000.0001)                       cg2d_iters =    77
(PID.TID 0000.0001)                         cg2d_res =    7.74252323104307E-12
(PID.TID 0000.0001) // =======================================================
(PID.TID 0000.0001) // Begin MONITOR dynamic field statistics
(PID.TID 0000.0001) // =======================================================
(PID.TID 0000.0001) %MON time_tsnumber                =                    65
(PID.TID 0000.0001) %MON time_secondsf                =   7.8000000000000E+04
(PID.TID 0000.0001) %MON dynstat_eta_max              =   4.0302562215961E-04
(PID.TID 0000.0001) %MON dynstat_eta_min              =  -4.1248040274234E-04
(PID.TID 0000.0001) %MON dynstat_eta_mean             =   1.0571698272954E-16
(PID.TID 0000.0001) %MON dynstat_eta_sd               =   3.7338724663780E-04
(PID.TID 0000.0001) %MON dynstat_eta_del2             =   3.8537640882898E-06
(PID.TID 0000.0001) %MON dynstat_uvel_max             =   1.4688007473388E-02
(PID.TID 0000.0001) %MON dynstat_uvel_min             =  -1.4690201442316E-02
(PID.TID 0000.0001) %MON dynstat_uvel_mean            =  -9.1493345593558E-07
(PID.TID 0000.0001) %MON dynstat_uvel_sd              =   2.7949252139200E-03
(PID.TID 0000.0001) %MON dynstat_uvel_del2            =   1.6963981889981E-04
(PID.TID 0000.0001) %MON dynstat_vvel_max             =   6.6113378427208E-03
(PID.TID 0000.0001) %MON dynstat_vvel_min             =  -6.6078169421784E-03
(PID.TID 0000.0001) %MON dynstat_vvel_mean            =  -1.0720410931200E-10
(PID.TID 0000.0001) %MON dynstat_vvel_sd              =   2.1247140694911E-03
(PID.TID 0000.0001) %MON dynstat_vvel_del2            =   9.6664428162004E-05
(PID.TID 0000.0001) %MON dynstat_wvel_max             =   1.3487385024348E-04
(PID.TID 0000.0001) %MON dynstat_wvel_min             =  -1.3498973751247E-04
(PID.TID 0000.0001) %MON dynstat_wvel_mean            =   8.5060148991255E-22
(PID.TID 0000.0001) %MON dynstat_wvel_sd              =   4.3641752030649E-05
(PID.TID 0000.0001) %MON dynstat_wvel_del2            =   6.4100578714697E-06
(PID.TID 0000.0001) %MON dynstat_theta_max            =   1.7020391872686E+01
(PID.TID 0000.0001) %MON dynstat_theta_min            =   1.6979608189010E+01
(PID.TID 0000.0001) %MON dynstat_theta_mean           =   1.6999999916877E+01
(PID.TID 0000.0001) %MON dynstat_theta_sd             =   1.8679154745051E-02
(PID.TID 0000.0001) %MON dynstat_theta_del2           =   1.9599902724395E-04
(PID.TID 0000.0001) %MON dynstat_salt_max             =   1.7020387109310E+01
(PID.TID 0000.0001) %MON dynstat_salt_min             =   1.6979612982850E+01
(PID.TID 0000.0001) %MON dynstat_salt_mean            =   1.7000000005832E+01
(PID.TID 0000.0001) %MON dynstat_salt_sd              =   1.8680928760716E-02
(PID.TID 0000.0001) %MON dynstat_salt_del2            =   2.0623900147769E-04
(PID.TID 0000.0001) %MON advcfl_uvel_max              =   1.7628241730779E-02
(PID.TID 0000.0001) %MON advcfl_vvel_max              =   7.9336054112649E-03
(PID.TID 0000.0001) %MON advcfl_wvel_max              =   3.2397537002992E-02
(PID.TID 0000.0001) %MON advcfl_W_hf_max              =   3.2397537002992E-02
(PID.TID 0000.0001) %MON pe_b_mean                    =   3.4192273317169E-09
(PID.TID 0000.0001) %MON ke_max                       =   1.1689608553729E-04
(PID.TID 0000.0001) %MON ke_mean                      =   6.0727206352593E-06
(PID.TID 0000.0001) %MON ke_vol                       =   2.5000000000000E+11
(PID.TID 0000.0001) %MON vort_r_min                   =  -6.7273603383511E-06
(PID.TID 0000.0001) %MON vort_r_max                   =   6.7983346086369E-06
(PID.TID 0000.0001) %MON vort_a_mean                  =   7.2900000000001E-05
(PID.TID 0000.0001) %MON vort_a_sd                    =   1.6402527307621E-06
(PID.TID 0000.0001) %MON vort_p_mean                  =   7.7363265306123E-05
(PID.TID 0000.0001) %MON vort_p_sd                    =   3.0968553150656E-05
(PID.TID 0000.0001) %MON surfExpan_theta_mean         =   1.8396992484904E-14
(PID.TID 0000.0001) %MON surfExpan_salt_mean          =   5.4190568367288E-17
(PID.TID 0000.0001) // =======================================================
(PID.TID 0000.0001) // End MONITOR dynamic field statistics
(PID.TID 0000.0001) // =======================================================
 cg2d: Sum(rhs),rhsMax =  -4.91611254743035E-13  8.09010594239706E-04
(PID.TID 0000.0001)                    cg2d_init_res =    5.62049093212511E-02
(PID.TID 0000.0001)                       cg2d_iters =    73
(PID.TID 0000.0001)                         cg2d_res =    9.99709788709827E-12
(PID.TID 0000.0001) // =======================================================
(PID.TID 0000.0001) // Begin MONITOR dynamic field statistics
(PID.TID 0000.0001) // =======================================================
(PID.TID 0000.0001) %MON time_tsnumber                =                    66
(PID.TID 0000.0001) %MON time_secondsf                =   7.9200000000000E+04
(PID.TID 0000.0001) %MON dynstat_eta_max              =   4.0301394529740E-04
(PID.TID 0000.0001) %MON dynstat_eta_min              =  -4.1249208072478E-04
(PID.TID 0000.0001) %MON dynstat_eta_mean             =   9.5322805527820E-17
(PID.TID 0000.0001) %MON dynstat_eta_sd               =   3.7339331407147E-04
(PID.TID 0000.0001) %MON dynstat_eta_del2             =   3.8524620749806E-06
(PID.TID 0000.0001) %MON dynstat_uvel_max             =   1.4058007405823E-02
(PID.TID 0000.0001) %MON dynstat_uvel_min             =  -1.4060224944662E-02
(PID.TID 0000.0001) %MON dynstat_uvel_mean            =  -9.1493971259941E-07
(PID.TID 0000.0001) %MON dynstat_uvel_sd              =   2.6616589761659E-03
(PID.TID 0000.0001) %MON dynstat_uvel_del2            =   1.6811321053630E-04
(PID.TID 0000.0001) %MON dynstat_vvel_max             =   5.8416477818092E-03
(PID.TID 0000.0001) %MON dynstat_vvel_min             =  -5.8383170840086E-03
(PID.TID 0000.0001) %MON dynstat_vvel_mean            =  -9.1112873338683E-11
(PID.TID 0000.0001) %MON dynstat_vvel_sd              =   1.8652392235938E-03
(PID.TID 0000.0001) %MON dynstat_vvel_del2            =   9.4860611341146E-05
(PID.TID 0000.0001) %MON dynstat_wvel_max             =   1.2566230818761E-04
(PID.TID 0000.0001) %MON dynstat_wvel_min             =  -1.2577261306530E-04
(PID.TID 0000.0001) %MON dynstat_wvel_mean            =   1.3794970754127E-21
(PID.TID 0000.0001) %MON dynstat_wvel_sd              =   4.1102250363448E-05
(PID.TID 0000.0001) %MON dynstat_wvel_del2            =   6.4023101849944E-06
(PID.TID 0000.0001) %MON dynstat_theta_max            =   1.7020391872686E+01
(PID.TID 0000.0001) %MON dynstat_theta_min            =   1.6979608189013E+01
(PID.TID 0000.0001) %MON dynstat_theta_mean           =   1.6999999916877E+01
(PID.TID 0000.0001) %MON dynstat_theta_sd             =   1.8679120067201E-02
(PID.TID 0000.0001) %MON dynstat_theta_del2           =   1.9600526887658E-04
(PID.TID 0000.0001) %MON dynstat_salt_max             =   1.7020387109310E+01
(PID.TID 0000.0001) %MON dynstat_salt_min             =   1.6979612982850E+01
(PID.TID 0000.0001) %MON dynstat_salt_mean            =   1.7000000005832E+01
(PID.TID 0000.0001) %MON dynstat_salt_sd              =   1.8680890647843E-02
(PID.TID 0000.0001) %MON dynstat_salt_del2            =   2.0640448968934E-04
(PID.TID 0000.0001) %MON advcfl_uvel_max              =   1.6872269933594E-02
(PID.TID 0000.0001) %MON advcfl_vvel_max              =   7.0099773381710E-03
(PID.TID 0000.0001) %MON advcfl_wvel_max              =   3.0185427135672E-02
(PID.TID 0000.0001) %MON advcfl_W_hf_max              =   3.0185427135672E-02
(PID.TID 0000.0001) %MON pe_b_mean                    =   3.4193384555100E-09
(PID.TID 0000.0001) %MON ke_max                       =   1.0465678420693E-04
(PID.TID 0000.0001) %MON ke_mean                      =   5.2121910046515E-06
(PID.TID 0000.0001) %MON ke_vol                       =   2.5000000000000E+11
(PID.TID 0000.0001) %MON vort_r_min                   =  -6.5957123373621E-06
(PID.TID 0000.0001) %MON vort_r_max                   =   6.6850638290230E-06
(PID.TID 0000.0001) %MON vort_a_mean                  =   7.2900000000000E-05
(PID.TID 0000.0001) %MON vort_a_sd                    =   1.6034992578799E-06
(PID.TID 0000.0001) %MON vort_p_mean                  =   7.7363265306122E-05
(PID.TID 0000.0001) %MON vort_p_sd                    =   3.0966511872334E-05
(PID.TID 0000.0001) %MON surfExpan_theta_mean         =   2.4043105401534E-14
(PID.TID 0000.0001) %MON surfExpan_salt_mean          =  -6.5927459611828E-18
(PID.TID 0000.0001) // =======================================================
(PID.TID 0000.0001) // End MONITOR dynamic field statistics
(PID.TID 0000.0001) // =======================================================
 cg2d: Sum(rhs),rhsMax =  -4.70854366781126E-13  8.08665907306542E-04
(PID.TID 0000.0001)                    cg2d_init_res =    4.96670066243820E-02
(PID.TID 0000.0001)                       cg2d_iters =    73
(PID.TID 0000.0001)                         cg2d_res =    5.96251636465067E-12
(PID.TID 0000.0001) // =======================================================
(PID.TID 0000.0001) // Begin MONITOR dynamic field statistics
(PID.TID 0000.0001) // =======================================================
(PID.TID 0000.0001) %MON time_tsnumber                =                    67
(PID.TID 0000.0001) %MON time_secondsf                =   8.0400000000000E+04
(PID.TID 0000.0001) %MON dynstat_eta_max              =   4.0299425616758E-04
(PID.TID 0000.0001) %MON dynstat_eta_min              =  -4.1251177304272E-04
(PID.TID 0000.0001) %MON dynstat_eta_mean             =   1.0729488281846E-16
(PID.TID 0000.0001) %MON dynstat_eta_sd               =   3.7339846934671E-04
(PID.TID 0000.0001) %MON dynstat_eta_del2             =   3.8511459731769E-06
(PID.TID 0000.0001) %MON dynstat_uvel_max             =   1.3507019822432E-02
(PID.TID 0000.0001) %MON dynstat_uvel_min             =  -1.3509259482084E-02
(PID.TID 0000.0001) %MON dynstat_uvel_mean            =  -9.1494518560692E-07
(PID.TID 0000.0001) %MON dynstat_uvel_sd              =   2.5490583424507E-03
(PID.TID 0000.0001) %MON dynstat_uvel_del2            =   1.6667858461726E-04
(PID.TID 0000.0001) %MON dynstat_vvel_max             =   5.0434155467270E-03
(PID.TID 0000.0001) %MON dynstat_vvel_min             =  -5.0401032518264E-03
(PID.TID 0000.0001) %MON dynstat_vvel_mean            =  -7.5121693555535E-11
(PID.TID 0000.0001) %MON dynstat_vvel_sd              =   1.5964248757197E-03
(PID.TID 0000.0001) %MON dynstat_vvel_del2            =   9.3342010163979E-05
(PID.TID 0000.0001) %MON dynstat_wvel_max             =   1.1596975210692E-04
(PID.TID 0000.0001) %MON dynstat_wvel_min             =  -1.1606984700895E-04
(PID.TID 0000.0001) %MON dynstat_wvel_mean            =  -3.1625144167218E-22
(PID.TID 0000.0001) %MON dynstat_wvel_sd              =   3.8693688373976E-05
(PID.TID 0000.0001) %MON dynstat_wvel_del2            =   6.3936388227295E-06
(PID.TID 0000.0001) %MON dynstat_theta_max            =   1.7020391872686E+01
(PID.TID 0000.0001) %MON dynstat_theta_min            =   1.6979608189016E+01
(PID.TID 0000.0001) %MON dynstat_theta_mean           =   1.6999999916877E+01
(PID.TID 0000.0001) %MON dynstat_theta_sd             =   1.8679090731078E-02
(PID.TID 0000.0001) %MON dynstat_theta_del2           =   1.9601659145843E-04
(PID.TID 0000.0001) %MON dynstat_salt_max             =   1.7020387109310E+01
(PID.TID 0000.0001) %MON dynstat_salt_min             =   1.6979612982850E+01
(PID.TID 0000.0001) %MON dynstat_salt_mean            =   1.7000000005832E+01
(PID.TID 0000.0001) %MON dynstat_salt_sd              =   1.8680738110192E-02
(PID.TID 0000.0001) %MON dynstat_salt_del2            =   2.0693129614891E-04
(PID.TID 0000.0001) %MON advcfl_uvel_max              =   1.6211111378501E-02
(PID.TID 0000.0001) %MON advcfl_vvel_max              =   6.0520986560724E-03
(PID.TID 0000.0001) %MON advcfl_wvel_max              =   2.7856763282148E-02
(PID.TID 0000.0001) %MON advcfl_W_hf_max              =   2.7856763282148E-02
(PID.TID 0000.0001) %MON pe_b_mean                    =   3.4194328747292E-09
(PID.TID 0000.0001) %MON ke_max                       =   9.4493019615738E-05
(PID.TID 0000.0001) %MON ke_mean                      =   4.4721643794031E-06
(PID.TID 0000.0001) %MON ke_vol                       =   2.5000000000000E+11
(PID.TID 0000.0001) %MON vort_r_min                   =  -6.4759183313751E-06
(PID.TID 0000.0001) %MON vort_r_max                   =   6.5839025881804E-06
(PID.TID 0000.0001) %MON vort_a_mean                  =   7.2899999999999E-05
(PID.TID 0000.0001) %MON vort_a_sd                    =   1.5710861708800E-06
(PID.TID 0000.0001) %MON vort_p_mean                  =   7.7363265306122E-05
(PID.TID 0000.0001) %MON vort_p_sd                    =   3.0964750262164E-05
(PID.TID 0000.0001) %MON surfExpan_theta_mean         =   2.4634835610817E-14
(PID.TID 0000.0001) %MON surfExpan_salt_mean          =  -9.7454000312773E-18
(PID.TID 0000.0001) // =======================================================
(PID.TID 0000.0001) // End MONITOR dynamic field statistics
(PID.TID 0000.0001) // =======================================================
 cg2d: Sum(rhs),rhsMax =  -5.31458340877200E-13  8.08277977685808E-04
(PID.TID 0000.0001)                    cg2d_init_res =    4.32807397686646E-02
(PID.TID 0000.0001)                       cg2d_iters =    73
(PID.TID 0000.0001)                         cg2d_res =    5.04317929576428E-12
(PID.TID 0000.0001) // =======================================================
(PID.TID 0000.0001) // Begin MONITOR dynamic field statistics
(PID.TID 0000.0001) // =======================================================
(PID.TID 0000.0001) %MON time_tsnumber                =                    68
(PID.TID 0000.0001) %MON time_secondsf                =   8.1600000000000E+04
(PID.TID 0000.0001) %MON dynstat_eta_max              =   4.0296953687277E-04
(PID.TID 0000.0001) %MON dynstat_eta_min              =  -4.1253649683677E-04
(PID.TID 0000.0001) %MON dynstat_eta_mean             =   9.5775252188512E-17
(PID.TID 0000.0001) %MON dynstat_eta_sd               =   3.7340259362929E-04
(PID.TID 0000.0001) %MON dynstat_eta_del2             =   3.8497912734699E-06
(PID.TID 0000.0001) %MON dynstat_uvel_max             =   1.3038059900101E-02
(PID.TID 0000.0001) %MON dynstat_uvel_min             =  -1.3040320224719E-02
(PID.TID 0000.0001) %MON dynstat_uvel_mean            =  -9.1494976337412E-07
(PID.TID 0000.0001) %MON dynstat_uvel_sd              =   2.4560599164196E-03
(PID.TID 0000.0001) %MON dynstat_uvel_del2            =   1.6533952237904E-04
(PID.TID 0000.0001) %MON dynstat_vvel_max             =   4.2139208064230E-03
(PID.TID 0000.0001) %MON dynstat_vvel_min             =  -4.2106314202492E-03
(PID.TID 0000.0001) %MON dynstat_vvel_mean            =  -5.9283132104556E-11
(PID.TID 0000.0001) %MON dynstat_vvel_sd              =   1.3232510838791E-03
(PID.TID 0000.0001) %MON dynstat_vvel_del2            =   9.1917463504346E-05
(PID.TID 0000.0001) %MON dynstat_wvel_max             =   1.0586692989290E-04
(PID.TID 0000.0001) %MON dynstat_wvel_min             =  -1.0595875430476E-04
(PID.TID 0000.0001) %MON dynstat_wvel_mean            =   1.7215521921127E-21
(PID.TID 0000.0001) %MON dynstat_wvel_sd              =   3.6532627660947E-05
(PID.TID 0000.0001) %MON dynstat_wvel_del2            =   6.3842118556010E-06
(PID.TID 0000.0001) %MON dynstat_theta_max            =   1.7020391872686E+01
(PID.TID 0000.0001) %MON dynstat_theta_min            =   1.6979608189018E+01
(PID.TID 0000.0001) %MON dynstat_theta_mean           =   1.6999999916877E+01
(PID.TID 0000.0001) %MON dynstat_theta_sd             =   1.8679066927586E-02
(PID.TID 0000.0001) %MON dynstat_theta_del2           =   1.9603347905437E-04
(PID.TID 0000.0001) %MON dynstat_salt_max             =   1.7020387109310E+01
(PID.TID 0000.0001) %MON dynstat_salt_min             =   1.6979612982850E+01
(PID.TID 0000.0001) %MON dynstat_salt_mean            =   1.7000000005832E+01
(PID.TID 0000.0001) %MON dynstat_salt_sd              =   1.8680606909755E-02
(PID.TID 0000.0001) %MON dynstat_salt_del2            =   2.0741494539804E-04
(PID.TID 0000.0001) %MON advcfl_uvel_max              =   1.5648384269663E-02
(PID.TID 0000.0001) %MON advcfl_vvel_max              =   5.0567049677076E-03
(PID.TID 0000.0001) %MON advcfl_wvel_max              =   2.5430101033142E-02
(PID.TID 0000.0001) %MON advcfl_W_hf_max              =   2.5430101033142E-02
(PID.TID 0000.0001) %MON pe_b_mean                    =   3.4195084121856E-09
(PID.TID 0000.0001) %MON ke_max                       =   8.6441920427706E-05
(PID.TID 0000.0001) %MON ke_mean                      =   3.8565924219619E-06
(PID.TID 0000.0001) %MON ke_vol                       =   2.5000000000000E+11
(PID.TID 0000.0001) %MON vort_r_min                   =  -6.3683857230542E-06
(PID.TID 0000.0001) %MON vort_r_max                   =   6.4952526596830E-06
(PID.TID 0000.0001) %MON vort_a_mean                  =   7.2900000000000E-05
(PID.TID 0000.0001) %MON vort_a_sd                    =   1.5429186258054E-06
(PID.TID 0000.0001) %MON vort_p_mean                  =   7.7363265306122E-05
(PID.TID 0000.0001) %MON vort_p_sd                    =   3.0963248895805E-05
(PID.TID 0000.0001) %MON surfExpan_theta_mean         =   2.0903856010980E-14
(PID.TID 0000.0001) %MON surfExpan_salt_mean          =  -9.5402486954216E-18
(PID.TID 0000.0001) // =======================================================
(PID.TID 0000.0001) // End MONITOR dynamic field statistics
(PID.TID 0000.0001) // =======================================================
 cg2d: Sum(rhs),rhsMax =  -4.51553291286322E-13  8.07925053219853E-04
(PID.TID 0000.0001)                    cg2d_init_res =    3.71559903691193E-02
(PID.TID 0000.0001)                       cg2d_iters =    73
(PID.TID 0000.0001)                         cg2d_res =    5.07235047207503E-12
(PID.TID 0000.0001) // =======================================================
(PID.TID 0000.0001) // Begin MONITOR dynamic field statistics
(PID.TID 0000.0001) // =======================================================
(PID.TID 0000.0001) %MON time_tsnumber                =                    69
(PID.TID 0000.0001) %MON time_secondsf                =   8.2800000000000E+04
(PID.TID 0000.0001) %MON dynstat_eta_max              =   4.0294291171675E-04
(PID.TID 0000.0001) %MON dynstat_eta_min              =  -4.1256312714125E-04
(PID.TID 0000.0001) %MON dynstat_eta_mean             =   1.0456986123453E-16
(PID.TID 0000.0001) %MON dynstat_eta_sd               =   3.7340558092754E-04
(PID.TID 0000.0001) %MON dynstat_eta_del2             =   3.8483751131022E-06
(PID.TID 0000.0001) %MON dynstat_uvel_max             =   1.2653490587283E-02
(PID.TID 0000.0001) %MON dynstat_uvel_min             =  -1.2655770103623E-02
(PID.TID 0000.0001) %MON dynstat_uvel_mean            =  -9.1495337289989E-07
(PID.TID 0000.0001) %MON dynstat_uvel_sd              =   2.3813907234692E-03
(PID.TID 0000.0001) %MON dynstat_uvel_del2            =   1.6408898663447E-04
(PID.TID 0000.0001) %MON dynstat_vvel_max             =   3.5731290959252E-03
(PID.TID 0000.0001) %MON dynstat_vvel_min             =  -3.5763608882166E-03
(PID.TID 0000.0001) %MON dynstat_vvel_mean            =  -4.3594875559368E-11
(PID.TID 0000.0001) %MON dynstat_vvel_sd              =   1.0537174862194E-03
(PID.TID 0000.0001) %MON dynstat_vvel_del2            =   9.0655473098327E-05
(PID.TID 0000.0001) %MON dynstat_wvel_max             =   9.5433674036782E-05
(PID.TID 0000.0001) %MON dynstat_wvel_min             =  -9.5518783016035E-05
(PID.TID 0000.0001) %MON dynstat_wvel_mean            =  -6.2205536528903E-22
(PID.TID 0000.0001) %MON dynstat_wvel_sd              =   3.4747197954003E-05
(PID.TID 0000.0001) %MON dynstat_wvel_del2            =   6.3743903912477E-06
(PID.TID 0000.0001) %MON dynstat_theta_max            =   1.7020391872686E+01
(PID.TID 0000.0001) %MON dynstat_theta_min            =   1.6979608189019E+01
(PID.TID 0000.0001) %MON dynstat_theta_mean           =   1.6999999916876E+01
(PID.TID 0000.0001) %MON dynstat_theta_sd             =   1.8679048533614E-02
(PID.TID 0000.0001) %MON dynstat_theta_del2           =   1.9605587197344E-04
(PID.TID 0000.0001) %MON dynstat_salt_max             =   1.7020387109310E+01
(PID.TID 0000.0001) %MON dynstat_salt_min             =   1.6979612982850E+01
(PID.TID 0000.0001) %MON dynstat_salt_mean            =   1.7000000005832E+01
(PID.TID 0000.0001) %MON dynstat_salt_sd              =   1.8680434289735E-02
(PID.TID 0000.0001) %MON dynstat_salt_del2            =   2.0795430700732E-04
(PID.TID 0000.0001) %MON advcfl_uvel_max              =   1.5186924124348E-02
(PID.TID 0000.0001) %MON advcfl_vvel_max              =   4.2916330658599E-03
(PID.TID 0000.0001) %MON advcfl_wvel_max              =   2.2924507923848E-02
(PID.TID 0000.0001) %MON advcfl_W_hf_max              =   2.2924507923848E-02
(PID.TID 0000.0001) %MON pe_b_mean                    =   3.4195631259586E-09
(PID.TID 0000.0001) %MON ke_max                       =   8.0523934815834E-05
(PID.TID 0000.0001) %MON ke_mean                      =   3.3684651670493E-06
(PID.TID 0000.0001) %MON ke_vol                       =   2.5000000000000E+11
(PID.TID 0000.0001) %MON vort_r_min                   =  -6.2734314835140E-06
(PID.TID 0000.0001) %MON vort_r_max                   =   6.4194027768152E-06
(PID.TID 0000.0001) %MON vort_a_mean                  =   7.2899999999999E-05
(PID.TID 0000.0001) %MON vort_a_sd                    =   1.5188789564973E-06
(PID.TID 0000.0001) %MON vort_p_mean                  =   7.7363265306122E-05
(PID.TID 0000.0001) %MON vort_p_sd                    =   3.0961989397934E-05
(PID.TID 0000.0001) %MON surfExpan_theta_mean         =   1.3451836421917E-14
(PID.TID 0000.0001) %MON surfExpan_salt_mean          =  -1.3638482242963E-17
(PID.TID 0000.0001) // =======================================================
(PID.TID 0000.0001) // End MONITOR dynamic field statistics
(PID.TID 0000.0001) // =======================================================
 cg2d: Sum(rhs),rhsMax =  -5.51516135278290E-13  8.07605036692459E-04
(PID.TID 0000.0001)                    cg2d_init_res =    3.13928107104774E-02
(PID.TID 0000.0001)                       cg2d_iters =    73
(PID.TID 0000.0001)                         cg2d_res =    4.97688398849650E-12
(PID.TID 0000.0001) // =======================================================
(PID.TID 0000.0001) // Begin MONITOR dynamic field statistics
(PID.TID 0000.0001) // =======================================================
(PID.TID 0000.0001) %MON time_tsnumber                =                    70
(PID.TID 0000.0001) %MON time_secondsf                =   8.4000000000000E+04
(PID.TID 0000.0001) %MON dynstat_eta_max              =   4.0291678622067E-04
(PID.TID 0000.0001) %MON dynstat_eta_min              =  -4.1258925834460E-04
(PID.TID 0000.0001) %MON dynstat_eta_mean             =   1.0222221866363E-16
(PID.TID 0000.0001) %MON dynstat_eta_sd               =   3.7340733920945E-04
(PID.TID 0000.0001) %MON dynstat_eta_del2             =   3.8468706731035E-06
(PID.TID 0000.0001) %MON dynstat_uvel_max             =   1.2355012744254E-02
(PID.TID 0000.0001) %MON dynstat_uvel_min             =  -1.2357310022138E-02
(PID.TID 0000.0001) %MON dynstat_uvel_mean            =  -9.1495594759579E-07
(PID.TID 0000.0001) %MON dynstat_uvel_sd              =   2.3237659501260E-03
(PID.TID 0000.0001) %MON dynstat_uvel_del2            =   1.6292461024589E-04
(PID.TID 0000.0001) %MON dynstat_vvel_max             =   2.9503758644118E-03
(PID.TID 0000.0001) %MON dynstat_vvel_min             =  -2.9536679273243E-03
(PID.TID 0000.0001) %MON dynstat_vvel_mean            =  -2.8000987948166E-11
(PID.TID 0000.0001) %MON dynstat_vvel_sd              =   8.0344526838828E-04
(PID.TID 0000.0001) %MON dynstat_vvel_del2            =   8.9745542569545E-05
(PID.TID 0000.0001) %MON dynstat_wvel_max             =   9.4459413042950E-05
(PID.TID 0000.0001) %MON dynstat_wvel_min             =  -9.4562391503659E-05
(PID.TID 0000.0001) %MON dynstat_wvel_mean            =   8.4538827863150E-23
(PID.TID 0000.0001) %MON dynstat_wvel_sd              =   3.3465938932210E-05
(PID.TID 0000.0001) %MON dynstat_wvel_del2            =   6.3643328548178E-06
(PID.TID 0000.0001) %MON dynstat_theta_max            =   1.7020391872686E+01
(PID.TID 0000.0001) %MON dynstat_theta_min            =   1.6979608189021E+01
(PID.TID 0000.0001) %MON dynstat_theta_mean           =   1.6999999916876E+01
(PID.TID 0000.0001) %MON dynstat_theta_sd             =   1.8679033695269E-02
(PID.TID 0000.0001) %MON dynstat_theta_del2           =   1.9608093222992E-04
(PID.TID 0000.0001) %MON dynstat_salt_max             =   1.7020387109310E+01
(PID.TID 0000.0001) %MON dynstat_salt_min             =   1.6979612982850E+01
(PID.TID 0000.0001) %MON dynstat_salt_mean            =   1.7000000005832E+01
(PID.TID 0000.0001) %MON dynstat_salt_sd              =   1.8680212087875E-02
(PID.TID 0000.0001) %MON dynstat_salt_del2            =   2.0861950730308E-04
(PID.TID 0000.0001) %MON advcfl_uvel_max              =   1.4828772026565E-02
(PID.TID 0000.0001) %MON advcfl_vvel_max              =   3.5444015127891E-03
(PID.TID 0000.0001) %MON advcfl_wvel_max              =   2.2694973960878E-02
(PID.TID 0000.0001) %MON advcfl_W_hf_max              =   2.2694973960878E-02
(PID.TID 0000.0001) %MON pe_b_mean                    =   3.4195953299236E-09
(PID.TID 0000.0001) %MON ke_max                       =   7.6742964339822E-05
(PID.TID 0000.0001) %MON ke_mean                      =   3.0097961777165E-06
(PID.TID 0000.0001) %MON ke_vol                       =   2.5000000000000E+11
(PID.TID 0000.0001) %MON vort_r_min                   =  -6.1912808849603E-06
(PID.TID 0000.0001) %MON vort_r_max                   =   6.3565304656472E-06
(PID.TID 0000.0001) %MON vort_a_mean                  =   7.2900000000000E-05
(PID.TID 0000.0001) %MON vort_a_sd                    =   1.4988412839663E-06
(PID.TID 0000.0001) %MON vort_p_mean                  =   7.7363265306122E-05
(PID.TID 0000.0001) %MON vort_p_sd                    =   3.0960955136638E-05
(PID.TID 0000.0001) %MON surfExpan_theta_mean         =   2.9290635861705E-15
(PID.TID 0000.0001) %MON surfExpan_salt_mean          =  -2.0359859183687E-17
(PID.TID 0000.0001) // =======================================================
(PID.TID 0000.0001) // End MONITOR dynamic field statistics
(PID.TID 0000.0001) // =======================================================
 cg2d: Sum(rhs),rhsMax =  -5.44061865871692E-13  8.07365670990757E-04
(PID.TID 0000.0001)                    cg2d_init_res =    2.63939175721689E-02
(PID.TID 0000.0001)                       cg2d_iters =    73
(PID.TID 0000.0001)                         cg2d_res =    5.18698745405355E-12
(PID.TID 0000.0001) // =======================================================
(PID.TID 0000.0001) // Begin MONITOR dynamic field statistics
(PID.TID 0000.0001) // =======================================================
(PID.TID 0000.0001) %MON time_tsnumber                =                    71
(PID.TID 0000.0001) %MON time_secondsf                =   8.5200000000000E+04
(PID.TID 0000.0001) %MON dynstat_eta_max              =   4.0289311878548E-04
(PID.TID 0000.0001) %MON dynstat_eta_min              =  -4.1261293244621E-04
(PID.TID 0000.0001) %MON dynstat_eta_mean             =   1.0906576876635E-16
(PID.TID 0000.0001) %MON dynstat_eta_sd               =   3.7340776007133E-04
(PID.TID 0000.0001) %MON dynstat_eta_del2             =   3.8452023016881E-06
(PID.TID 0000.0001) %MON dynstat_uvel_max             =   1.2143660300071E-02
(PID.TID 0000.0001) %MON dynstat_uvel_min             =  -1.2145973987887E-02
(PID.TID 0000.0001) %MON dynstat_uvel_mean            =  -9.1495744547572E-07
(PID.TID 0000.0001) %MON dynstat_uvel_sd              =   2.2820944784309E-03
(PID.TID 0000.0001) %MON dynstat_uvel_del2            =   1.6184459094317E-04
(PID.TID 0000.0001) %MON dynstat_vvel_max             =   2.3178089613878E-03
(PID.TID 0000.0001) %MON dynstat_vvel_min             =  -2.3211647465231E-03
(PID.TID 0000.0001) %MON dynstat_vvel_mean            =  -1.2178577073000E-11
(PID.TID 0000.0001) %MON dynstat_vvel_sd              =   6.0834223846174E-04
(PID.TID 0000.0001) %MON dynstat_vvel_del2            =   8.9153621588794E-05
(PID.TID 0000.0001) %MON dynstat_wvel_max             =   1.0114049291416E-04
(PID.TID 0000.0001) %MON dynstat_wvel_min             =  -1.0124095262571E-04
(PID.TID 0000.0001) %MON dynstat_wvel_mean            =  -5.4479695872305E-22
(PID.TID 0000.0001) %MON dynstat_wvel_sd              =   3.2798918672674E-05
(PID.TID 0000.0001) %MON dynstat_wvel_del2            =   6.3547424235485E-06
(PID.TID 0000.0001) %MON dynstat_theta_max            =   1.7020391872686E+01
(PID.TID 0000.0001) %MON dynstat_theta_min            =   1.6979608189021E+01
(PID.TID 0000.0001) %MON dynstat_theta_mean           =   1.6999999916876E+01
(PID.TID 0000.0001) %MON dynstat_theta_sd             =   1.8679017695403E-02
(PID.TID 0000.0001) %MON dynstat_theta_del2           =   1.9610406512533E-04
(PID.TID 0000.0001) %MON dynstat_salt_max             =   1.7020387109310E+01
(PID.TID 0000.0001) %MON dynstat_salt_min             =   1.6979612982850E+01
(PID.TID 0000.0001) %MON dynstat_salt_mean            =   1.7000000005832E+01
(PID.TID 0000.0001) %MON dynstat_salt_sd              =   1.8679932597865E-02
(PID.TID 0000.0001) %MON dynstat_salt_del2            =   2.0941698696572E-04
(PID.TID 0000.0001) %MON advcfl_uvel_max              =   1.4575168785464E-02
(PID.TID 0000.0001) %MON advcfl_vvel_max              =   2.7853976958278E-03
(PID.TID 0000.0001) %MON advcfl_wvel_max              =   2.4297828630171E-02
(PID.TID 0000.0001) %MON advcfl_W_hf_max              =   2.4297828630171E-02
(PID.TID 0000.0001) %MON pe_b_mean                    =   3.4196030382784E-09
(PID.TID 0000.0001) %MON ke_max                       =   7.5086581632344E-05
(PID.TID 0000.0001) %MON ke_mean                      =   2.7816165567823E-06
(PID.TID 0000.0001) %MON ke_vol                       =   2.5000000000000E+11
(PID.TID 0000.0001) %MON vort_r_min                   =  -6.1220719580900E-06
(PID.TID 0000.0001) %MON vort_r_max                   =   6.3066992059940E-06
(PID.TID 0000.0001) %MON vort_a_mean                  =   7.2900000000000E-05
(PID.TID 0000.0001) %MON vort_a_sd                    =   1.4826845953503E-06
(PID.TID 0000.0001) %MON vort_p_mean                  =   7.7363265306123E-05
(PID.TID 0000.0001) %MON vort_p_sd                    =   3.0960131748011E-05
(PID.TID 0000.0001) %MON surfExpan_theta_mean         =  -1.0456881726853E-14
(PID.TID 0000.0001) %MON surfExpan_salt_mean          =  -2.2351742604619E-17
(PID.TID 0000.0001) // =======================================================
(PID.TID 0000.0001) // End MONITOR dynamic field statistics
(PID.TID 0000.0001) // =======================================================
 cg2d: Sum(rhs),rhsMax =  -5.72439339853459E-13  8.07262866807784E-04
(PID.TID 0000.0001)                    cg2d_init_res =    2.28547774450155E-02
(PID.TID 0000.0001)                       cg2d_iters =    73
(PID.TID 0000.0001)                         cg2d_res =    5.32374610689920E-12
(PID.TID 0000.0001) // =======================================================
(PID.TID 0000.0001) // Begin MONITOR dynamic field statistics
(PID.TID 0000.0001) // =======================================================
(PID.TID 0000.0001) %MON time_tsnumber                =                    72
(PID.TID 0000.0001) %MON time_secondsf                =   8.6400000000000E+04
(PID.TID 0000.0001) %MON dynstat_eta_max              =   4.0287334072077E-04
(PID.TID 0000.0001) %MON dynstat_eta_min              =  -4.1263271858562E-04
(PID.TID 0000.0001) %MON dynstat_eta_mean             =   1.0874644166992E-16
(PID.TID 0000.0001) %MON dynstat_eta_sd               =   3.7340669929987E-04
(PID.TID 0000.0001) %MON dynstat_eta_del2             =   3.8432808156950E-06
(PID.TID 0000.0001) %MON dynstat_uvel_max             =   1.2019799352417E-02
(PID.TID 0000.0001) %MON dynstat_uvel_min             =  -1.2022128282429E-02
(PID.TID 0000.0001) %MON dynstat_uvel_mean            =  -9.1495780093135E-07
(PID.TID 0000.0001) %MON dynstat_uvel_sd              =   2.2556597421360E-03
(PID.TID 0000.0001) %MON dynstat_uvel_del2            =   1.6084538501219E-04
(PID.TID 0000.0001) %MON dynstat_vvel_max             =   3.1858469587660E-03
(PID.TID 0000.0001) %MON dynstat_vvel_min             =  -3.1840177177238E-03
(PID.TID 0000.0001) %MON dynstat_vvel_mean            =   4.4388460793218E-12
(PID.TID 0000.0001) %MON dynstat_vvel_sd              =   5.4001433766585E-04
(PID.TID 0000.0001) %MON dynstat_vvel_del2            =   8.8735784231430E-05
(PID.TID 0000.0001) %MON dynstat_wvel_max             =   1.0785182765349E-04
(PID.TID 0000.0001) %MON dynstat_wvel_min             =  -1.0794986394035E-04
(PID.TID 0000.0001) %MON dynstat_wvel_mean            =   1.6191151991251E-23
(PID.TID 0000.0001) %MON dynstat_wvel_sd              =   3.2814425116966E-05
(PID.TID 0000.0001) %MON dynstat_wvel_del2            =   6.3454738782755E-06
(PID.TID 0000.0001) %MON dynstat_theta_max            =   1.7020391872686E+01
(PID.TID 0000.0001) %MON dynstat_theta_min            =   1.6979608189021E+01
(PID.TID 0000.0001) %MON dynstat_theta_mean           =   1.6999999916877E+01
(PID.TID 0000.0001) %MON dynstat_theta_sd             =   1.8678994539700E-02
(PID.TID 0000.0001) %MON dynstat_theta_del2           =   1.9611989720854E-04
(PID.TID 0000.0001) %MON dynstat_salt_max             =   1.7020387109310E+01
(PID.TID 0000.0001) %MON dynstat_salt_min             =   1.6979612982850E+01
(PID.TID 0000.0001) %MON dynstat_salt_mean            =   1.7000000005832E+01
(PID.TID 0000.0001) %MON dynstat_salt_sd              =   1.8679588248516E-02
(PID.TID 0000.0001) %MON dynstat_salt_del2            =   2.1033450631971E-04
(PID.TID 0000.0001) %MON advcfl_uvel_max              =   1.4426553938915E-02
(PID.TID 0000.0001) %MON advcfl_vvel_max              =   3.8230163505192E-03
(PID.TID 0000.0001) %MON advcfl_wvel_max              =   2.5907967345683E-02
(PID.TID 0000.0001) %MON advcfl_W_hf_max              =   2.5907967345683E-02
(PID.TID 0000.0001) %MON pe_b_mean                    =   3.4195836095866E-09
(PID.TID 0000.0001) %MON ke_max                       =   7.5526303236902E-05
(PID.TID 0000.0001) %MON ke_mean                      =   2.6839762874650E-06
(PID.TID 0000.0001) %MON ke_vol                       =   2.5000000000000E+11
(PID.TID 0000.0001) %MON vort_r_min                   =  -6.0658574959534E-06
(PID.TID 0000.0001) %MON vort_r_max                   =   6.2698582945594E-06
(PID.TID 0000.0001) %MON vort_a_mean                  =   7.2900000000000E-05
(PID.TID 0000.0001) %MON vort_a_sd                    =   1.4703041662173E-06
(PID.TID 0000.0001) %MON vort_p_mean                  =   7.7363265306123E-05
(PID.TID 0000.0001) %MON vort_p_sd                    =   3.0959507533075E-05
(PID.TID 0000.0001) %MON surfExpan_theta_mean         =  -2.6823505357908E-14
(PID.TID 0000.0001) %MON surfExpan_salt_mean          =  -2.9079705183151E-17
(PID.TID 0000.0001) // =======================================================
(PID.TID 0000.0001) // End MONITOR dynamic field statistics
(PID.TID 0000.0001) // =======================================================
 Computing Diagnostic # 267  UVELSLT      Counter:   72      Parms: UU   268MR      
           Vector  Mate for  UVELSLT      Diagnostic # 268  VVELSLT  exists 
 Computing Diagnostic # 268  VVELSLT      Counter:   72      Parms: VV   267MR      
           Vector  Mate for  VVELSLT      Diagnostic # 267  UVELSLT  exists 
 Computing Diagnostic # 269  WVELSLT      Counter:   72      Parms: WM      LR      
 Computing Diagnostic # 264  UVELTH       Counter:   72      Parms: UU   265MR      
           Vector  Mate for  UVELTH       Diagnostic # 265  VVELTH   exists 
 Computing Diagnostic # 265  VVELTH       Counter:   72      Parms: VV   264MR      
           Vector  Mate for  VVELTH       Diagnostic # 264  UVELTH   exists 
 Computing Diagnostic # 266  WVELTH       Counter:   72      Parms: WM      LR      
(PID.TID 0000.0001) %CHECKPOINT        72 0000000072
(PID.TID 0000.0001)   Seconds in section "ALL                    [THE_MODEL_MAIN]":
(PID.TID 0000.0001)           User time: 14.0799999237060547
(PID.TID 0000.0001)         System time: 3.27999996207654476
(PID.TID 0000.0001)     Wall clock time: 18.6612019538879395
(PID.TID 0000.0001)          No. starts: 1
(PID.TID 0000.0001)           No. stops: 1
(PID.TID 0000.0001)   Seconds in section "INITIALISE_FIXED       [THE_MODEL_MAIN]":
(PID.TID 0000.0001)           User time: 0.170000001788139343
(PID.TID 0000.0001)         System time: 0.260000010952353477
(PID.TID 0000.0001)     Wall clock time: 0.415994882583618164
(PID.TID 0000.0001)          No. starts: 1
(PID.TID 0000.0001)           No. stops: 1
(PID.TID 0000.0001)   Seconds in section "THE_MAIN_LOOP          [THE_MODEL_MAIN]":
(PID.TID 0000.0001)           User time: 13.9099999219179153
(PID.TID 0000.0001)         System time: 3.01999995112419128
(PID.TID 0000.0001)     Wall clock time: 18.2450139522552490
(PID.TID 0000.0001)          No. starts: 1
(PID.TID 0000.0001)           No. stops: 1
(PID.TID 0000.0001)   Seconds in section "INITIALISE_VARIA    [THE_MAIN_LOOP]":
(PID.TID 0000.0001)           User time: 0.300000011920928955E-01
(PID.TID 0000.0001)         System time: 0.499999821186065674E-01
(PID.TID 0000.0001)     Wall clock time: 0.864248275756835938E-01
(PID.TID 0000.0001)          No. starts: 1
(PID.TID 0000.0001)           No. stops: 1
(PID.TID 0000.0001)   Seconds in section "MONITOR             [THE_MAIN_LOOP]":
(PID.TID 0000.0001)           User time: 0.199999958276748657E-01
(PID.TID 0000.0001)         System time: 0.000000000000000000E+00
(PID.TID 0000.0001)     Wall clock time: 0.128941535949707031E-01
(PID.TID 0000.0001)          No. starts: 1
(PID.TID 0000.0001)           No. stops: 1
(PID.TID 0000.0001)   Seconds in section "DO_THE_MODEL_IO     [THE_MAIN_LOOP]":
(PID.TID 0000.0001)           User time: 0.199999958276748657E-01
(PID.TID 0000.0001)         System time: 0.400000214576721191E-01
(PID.TID 0000.0001)     Wall clock time: 0.671188831329345703E-01
(PID.TID 0000.0001)          No. starts: 1
(PID.TID 0000.0001)           No. stops: 1
(PID.TID 0000.0001)   Seconds in section "MAIN LOOP           [THE_MAIN_LOOP]":
(PID.TID 0000.0001)           User time: 13.8399999290704727
(PID.TID 0000.0001)         System time: 2.92999994754791260
(PID.TID 0000.0001)     Wall clock time: 18.0784010887145996
(PID.TID 0000.0001)          No. starts: 1
(PID.TID 0000.0001)           No. stops: 1
(PID.TID 0000.0001)   Seconds in section "FORWARD_STEP        [THE_MAIN_LOOP]":
(PID.TID 0000.0001)           User time: 13.8399999290704727
(PID.TID 0000.0001)         System time: 2.92999994754791260
(PID.TID 0000.0001)     Wall clock time: 18.0761597156524658
(PID.TID 0000.0001)          No. starts: 72
(PID.TID 0000.0001)           No. stops: 72
(PID.TID 0000.0001)   Seconds in section "DO_STATEVARS_DIAGS  [FORWARD_STEP]":
(PID.TID 0000.0001)           User time: 0.459997430443763733
(PID.TID 0000.0001)         System time: 0.000000000000000000E+00
(PID.TID 0000.0001)     Wall clock time: 0.482104301452636719
(PID.TID 0000.0001)          No. starts: 144
(PID.TID 0000.0001)           No. stops: 144
(PID.TID 0000.0001)   Seconds in section "EXTERNAL_FIELDS_LOAD[FORWARD_STEP]":
(PID.TID 0000.0001)           User time: 0.999927520751953125E-02
(PID.TID 0000.0001)         System time: 0.000000000000000000E+00
(PID.TID 0000.0001)     Wall clock time: 0.223231315612792969E-02
(PID.TID 0000.0001)          No. starts: 72
(PID.TID 0000.0001)           No. stops: 72
(PID.TID 0000.0001)   Seconds in section "DO_ATMOSPHERIC_PHYS [FORWARD_STEP]":
(PID.TID 0000.0001)           User time: 0.000000000000000000E+00
(PID.TID 0000.0001)         System time: 0.000000000000000000E+00
(PID.TID 0000.0001)     Wall clock time: 0.213813781738281250E-02
(PID.TID 0000.0001)          No. starts: 72
(PID.TID 0000.0001)           No. stops: 72
(PID.TID 0000.0001)   Seconds in section "DO_OCEANIC_PHYS     [FORWARD_STEP]":
(PID.TID 0000.0001)           User time: 0.369998693466186523
(PID.TID 0000.0001)         System time: 0.000000000000000000E+00
(PID.TID 0000.0001)     Wall clock time: 0.334891796112060547
(PID.TID 0000.0001)          No. starts: 72
(PID.TID 0000.0001)           No. stops: 72
(PID.TID 0000.0001)   Seconds in section "DYNAMICS            [FORWARD_STEP]":
(PID.TID 0000.0001)           User time: 5.21999791264533997
(PID.TID 0000.0001)         System time: 1.06999993324279785
(PID.TID 0000.0001)     Wall clock time: 7.46056485176086426
(PID.TID 0000.0001)          No. starts: 72
(PID.TID 0000.0001)           No. stops: 72
(PID.TID 0000.0001)   Seconds in section "SOLVE_FOR_PRESSURE  [FORWARD_STEP]":
(PID.TID 0000.0001)           User time: 0.260002851486206055
(PID.TID 0000.0001)         System time: 0.999999046325683594E-02
(PID.TID 0000.0001)     Wall clock time: 0.244723081588745117
(PID.TID 0000.0001)          No. starts: 72
(PID.TID 0000.0001)           No. stops: 72
(PID.TID 0000.0001)   Seconds in section "UV_CORRECTION_STEP  [FORWARD_STEP]":
(PID.TID 0000.0001)           User time: 0.210001468658447266
(PID.TID 0000.0001)         System time: 0.000000000000000000E+00
(PID.TID 0000.0001)     Wall clock time: 0.238336324691772461
(PID.TID 0000.0001)          No. starts: 72
(PID.TID 0000.0001)           No. stops: 72
(PID.TID 0000.0001)   Seconds in section "BLOCKING_EXCHANGES  [FORWARD_STEP]":
(PID.TID 0000.0001)           User time: 0.190002024173736572
(PID.TID 0000.0001)         System time: 0.000000000000000000E+00
(PID.TID 0000.0001)     Wall clock time: 0.157862186431884766
(PID.TID 0000.0001)          No. starts: 144
(PID.TID 0000.0001)           No. stops: 144
(PID.TID 0000.0001)   Seconds in section "THERMODYNAMICS      [FORWARD_STEP]":
(PID.TID 0000.0001)           User time: 4.10999891161918640
(PID.TID 0000.0001)         System time: 0.000000000000000000E+00
(PID.TID 0000.0001)     Wall clock time: 4.07550835609436035
(PID.TID 0000.0001)          No. starts: 72
(PID.TID 0000.0001)           No. stops: 72
(PID.TID 0000.0001)   Seconds in section "TS_CORRECTION_STEP  [FORWARD_STEP]":
(PID.TID 0000.0001)           User time: 0.199999809265136719E-01
(PID.TID 0000.0001)         System time: 0.000000000000000000E+00
(PID.TID 0000.0001)     Wall clock time: 0.799078941345214844E-01
(PID.TID 0000.0001)          No. starts: 72
(PID.TID 0000.0001)           No. stops: 72
(PID.TID 0000.0001)   Seconds in section "DO_STATEVARS_TAVE   [FORWARD_STEP]":
(PID.TID 0000.0001)           User time: 0.659995317459106445
(PID.TID 0000.0001)         System time: 0.000000000000000000E+00
(PID.TID 0000.0001)     Wall clock time: 0.690459966659545898
(PID.TID 0000.0001)          No. starts: 72
(PID.TID 0000.0001)           No. stops: 72
(PID.TID 0000.0001)   Seconds in section "MONITOR             [FORWARD_STEP]":
(PID.TID 0000.0001)           User time: 0.820005118846893311
(PID.TID 0000.0001)         System time: 0.799999237060546875E-01
(PID.TID 0000.0001)     Wall clock time: 0.924183130264282227
(PID.TID 0000.0001)          No. starts: 72
(PID.TID 0000.0001)           No. stops: 72
(PID.TID 0000.0001)   Seconds in section "DO_THE_MODEL_IO     [FORWARD_STEP]":
(PID.TID 0000.0001)           User time: 1.34000015258789062
(PID.TID 0000.0001)         System time: 1.57000005245208740
(PID.TID 0000.0001)     Wall clock time: 3.01502633094787598
(PID.TID 0000.0001)          No. starts: 72
(PID.TID 0000.0001)           No. stops: 72
(PID.TID 0000.0001)   Seconds in section "WRITE_CHECKPOINT    [FORWARD_STEP]":
(PID.TID 0000.0001)           User time: 0.130000114440917969
(PID.TID 0000.0001)         System time: 0.190000057220458984
(PID.TID 0000.0001)     Wall clock time: 0.330186128616333008
(PID.TID 0000.0001)          No. starts: 72
(PID.TID 0000.0001)           No. stops: 72
(PID.TID 0000.0001)   Seconds in section "WRITE_CHECKPOINT       [THE_MODEL_MAIN]":
(PID.TID 0000.0001)           User time: 0.000000000000000000E+00
(PID.TID 0000.0001)         System time: 0.000000000000000000E+00
(PID.TID 0000.0001)     Wall clock time: 0.498294830322265625E-04
(PID.TID 0000.0001)          No. starts: 1
(PID.TID 0000.0001)           No. stops: 1
(PID.TID 0000.0001) // ======================================================
(PID.TID 0000.0001) // Tile <-> Tile communication statistics
(PID.TID 0000.0001) // ======================================================
(PID.TID 0000.0001) // o Tile number: 000001
(PID.TID 0000.0001) //         No. X exchanges =              0
(PID.TID 0000.0001) //            Max. X spins =              0
(PID.TID 0000.0001) //            Min. X spins =     1000000000
(PID.TID 0000.0001) //          Total. X spins =              0
(PID.TID 0000.0001) //            Avg. X spins =       0.00E+00
(PID.TID 0000.0001) //         No. Y exchanges =              0
(PID.TID 0000.0001) //            Max. Y spins =              0
(PID.TID 0000.0001) //            Min. Y spins =     1000000000
(PID.TID 0000.0001) //          Total. Y spins =              0
(PID.TID 0000.0001) //            Avg. Y spins =       0.00E+00
(PID.TID 0000.0001) // o Thread number: 000001
(PID.TID 0000.0001) //            No. barriers =          88258
(PID.TID 0000.0001) //      Max. barrier spins =              1
(PID.TID 0000.0001) //      Min. barrier spins =              1
(PID.TID 0000.0001) //     Total barrier spins =          88258
(PID.TID 0000.0001) //      Avg. barrier spins =       1.00E+00
