(PID.TID 0000.0001) 
(PID.TID 0000.0001) // ======================================================
(PID.TID 0000.0001) //                      MITgcm UV
(PID.TID 0000.0001) //                      =========
(PID.TID 0000.0001) // ======================================================
(PID.TID 0000.0001) // execution environment starting up...
(PID.TID 0000.0001) 
(PID.TID 0000.0001) // MITgcmUV version:  checkpoint57e_post
(PID.TID 0000.0001) // Build user:        baylor
(PID.TID 0000.0001) // Build host:        TWO.MIT.EDU
(PID.TID 0000.0001) // Build date:        Wed Mar  9 22:13:44 EST 2005
(PID.TID 0000.0001) 
(PID.TID 0000.0001) // =======================================================
(PID.TID 0000.0001) // Execution Environment parameter file "eedata"
(PID.TID 0000.0001) // =======================================================
(PID.TID 0000.0001) ># Example "eedata" file
(PID.TID 0000.0001) ># Lines beginning "#" are comments
(PID.TID 0000.0001) ># nTx - No. threads per process in X
(PID.TID 0000.0001) ># nTy - No. threads per process in Y
(PID.TID 0000.0001) > &EEPARMS
(PID.TID 0000.0001) > /
(PID.TID 0000.0001) ># Note: Some systems use & as the
(PID.TID 0000.0001) ># namelist terminator. Other systems
(PID.TID 0000.0001) ># use a & character (as shown here).
(PID.TID 0000.0001) 
(PID.TID 0000.0001) // =======================================================
(PID.TID 0000.0001) // Computational Grid Specification ( see files "SIZE.h" )
(PID.TID 0000.0001) //                                  ( and "eedata"       )
(PID.TID 0000.0001) // =======================================================
(PID.TID 0000.0001)      nPx =    1 ; /* No. processes in X */
(PID.TID 0000.0001)      nPy =    1 ; /* No. processes in Y */
(PID.TID 0000.0001)      nSx =    1 ; /* No. tiles in X per process */
(PID.TID 0000.0001)      nSy =    1 ; /* No. tiles in Y per process */
(PID.TID 0000.0001)      sNx =   50 ; /* Tile size in X */
(PID.TID 0000.0001)      sNy =   26 ; /* Tile size in Y */
(PID.TID 0000.0001)      OLx =    3 ; /* Tile overlap distance in X */
(PID.TID 0000.0001)      OLy =    3 ; /* Tile overlap distance in Y */
(PID.TID 0000.0001)      nTx =    1 ; /* No. threads in X per process */
(PID.TID 0000.0001)      nTy =    1 ; /* No. threads in Y per process */
(PID.TID 0000.0001)       Nr =   40 ; /* No. levels in the vertical   */
(PID.TID 0000.0001)       nX =   50 ; /* Total domain size in X ( = nPx*nSx*sNx ) */
(PID.TID 0000.0001)       nY =   26 ; /* Total domain size in Y ( = nPy*nSy*sNy ) */
(PID.TID 0000.0001)   nTiles =    1 ; /* Total no. tiles per process ( = nSx*nSy ) */
(PID.TID 0000.0001)   nProcs =    1 ; /* Total no. processes ( = nPx*nPy ) */
(PID.TID 0000.0001) nThreads =    1 ; /* Total no. threads per process ( = nTx*nTy ) */
(PID.TID 0000.0001) usingMPI =    F ; /* Flag used to control whether MPI is in use */
(PID.TID 0000.0001)                   /*  note: To execute a program with MPI calls */
(PID.TID 0000.0001)                   /*  it must be launched appropriately e.g     */
(PID.TID 0000.0001)                   /*  "mpirun -np 64 ......"                    */
(PID.TID 0000.0001) useCoupler=   F ; /* Flag used to control communications with */
(PID.TID 0000.0001)                   /*  other model components, through a coupler */
(PID.TID 0000.0001) 
(PID.TID 0000.0001) // ======================================================
(PID.TID 0000.0001) // Mapping of tiles to threads
(PID.TID 0000.0001) // ======================================================
(PID.TID 0000.0001) // -o- Thread   1, tiles (   1:   1,   1:   1)
(PID.TID 0000.0001) 
(PID.TID 0000.0001) // ======================================================
(PID.TID 0000.0001) // Tile <-> Tile connectvity table
(PID.TID 0000.0001) // ======================================================
(PID.TID 0000.0001) // Tile number: 000001 (process no. = 000001)
(PID.TID 0000.0001) //        WEST: Tile = 000001, Process = 000001, Comm = put
(PID.TID 0000.0001) //                bi = 000001, bj = 000001
(PID.TID 0000.0001) //        EAST: Tile = 000001, Process = 000001, Comm = put
(PID.TID 0000.0001) //                bi = 000001, bj = 000001
(PID.TID 0000.0001) //       SOUTH: Tile = 000001, Process = 000001, Comm = put
(PID.TID 0000.0001) //                bi = 000001, bj = 000001
(PID.TID 0000.0001) //       NORTH: Tile = 000001, Process = 000001, Comm = put
(PID.TID 0000.0001) //                bi = 000001, bj = 000001
(PID.TID 0000.0001) 
(PID.TID 0000.0001) // =======================================================
(PID.TID 0000.0001) // Model parameter file "data"
(PID.TID 0000.0001) // =======================================================
(PID.TID 0000.0001) ># ====================
(PID.TID 0000.0001) ># | Model parameters |
(PID.TID 0000.0001) ># ====================
(PID.TID 0000.0001) >#
(PID.TID 0000.0001) ># Continuous equation parameters
(PID.TID 0000.0001) > &PARM01
(PID.TID 0000.0001) > viscAr=5.E-3,
(PID.TID 0000.0001) ># This is the minimum viscosity used total=viscah+viscleith
(PID.TID 0000.0001) ># Often U*deltaX/2 for grid noise (Griffies and Hallberg,2000)
(PID.TID 0000.0001) > viscAh=3.E1,
(PID.TID 0000.0001) ># This is the standard Leith Viscosity, prop to grad(curl v_h)
(PID.TID 0000.0001) > viscC2leith=5.,
(PID.TID 0000.0001) ># This is an additional Leith Viscosity, prop to grad(div.v_h)
(PID.TID 0000.0001) ># It traps instabilities that have no signal in grad(curl v_h)
(PID.TID 0000.0001) ># viscC2leithD=5.,
(PID.TID 0000.0001) ># These are the minimum viscosities used with Smagorinsky
(PID.TID 0000.0001) ># total=viscastrain+viscsmag, etc.
(PID.TID 0000.0001) ># viscAstrain=3.E1,
(PID.TID 0000.0001) ># viscAtension=3.E1,
(PID.TID 0000.0001) ># This is harmonic Smagorinsky Coefficient
(PID.TID 0000.0001) ># 0.15=value from 3-d turbulence theory;
(PID.TID 0000.0001) ># 3-4=stable oceanic values (Griffies and Hallberg, 2000)
(PID.TID 0000.0001) ># viscC2Smag=4.,
(PID.TID 0000.0001) ># This is the max Viscosity used, be it Smag or Leith, and it scales
(PID.TID 0000.0001) ># with grid size and timestep
(PID.TID 0000.0001) ># Often 0.5 for stability (Griffies and Hallberg,2000)
(PID.TID 0000.0001) > viscAhGridMax=0.5,
(PID.TID 0000.0001) > useFullLeith=.TRUE.,
(PID.TID 0000.0001) > no_slip_sides=.FALSE.,
(PID.TID 0000.0001) > no_slip_bottom=.FALSE.,
(PID.TID 0000.0001) > ivdc_kappa=10.,
(PID.TID 0000.0001) > implicitDiffusion=.TRUE.,
(PID.TID 0000.0001) > implicitViscosity=.TRUE.,
(PID.TID 0000.0001) > f0=7.29e-5,
(PID.TID 0000.0001) > beta=0.E-11,
(PID.TID 0000.0001) > eosType='LINEAR',
(PID.TID 0000.0001) ># Using Temperature as only Active Tracer
(PID.TID 0000.0001) > tAlpha=2.E-4,
(PID.TID 0000.0001) ># Using Salinity as Spice
(PID.TID 0000.0001) > sBeta =0.E-4,
(PID.TID 0000.0001) > saltStepping=.TRUE.,
(PID.TID 0000.0001) > gravity=9.81,
(PID.TID 0000.0001) > rhonil=1035.,
(PID.TID 0000.0001) > implicitFreeSurface=.TRUE.,
(PID.TID 0000.0001) > usejamartwetpoints=.TRUE.,
(PID.TID 0000.0001) > rigidLid=.FALSE.,
(PID.TID 0000.0001) > staggerTimeStep=.TRUE.,
(PID.TID 0000.0001) > readBinaryPrec=64,
(PID.TID 0000.0001) > writeBinaryPrec=64,
(PID.TID 0000.0001) > tempAdvScheme=33,
(PID.TID 0000.0001) > saltAdvScheme=33,
(PID.TID 0000.0001) > nonHydrostatic=.FALSE.,
(PID.TID 0000.0001) > vectorInvariantMomentum=.TRUE.,
(PID.TID 0000.0001) > /
(PID.TID 0000.0001) >
(PID.TID 0000.0001) ># Elliptic solver parameters
(PID.TID 0000.0001) > &PARM02
(PID.TID 0000.0001) > cg2dMaxIters=1000,
(PID.TID 0000.0001) > cg2dTargetResidual=1.E-11,
(PID.TID 0000.0001) > cg3dMaxIters=40,
(PID.TID 0000.0001) > cg3dTargetResidual=1.E-9,
(PID.TID 0000.0001) > /
(PID.TID 0000.0001) >
(PID.TID 0000.0001) ># Time stepping parameters
(PID.TID 0000.0001) > &PARM03
(PID.TID 0000.0001) > niter0=36,
(PID.TID 0000.0001) > endTime=86400.,
(PID.TID 0000.0001) > deltaT=1200.,
(PID.TID 0000.0001) > abEps=0.01,
(PID.TID 0000.0001) > pchkptFreq=43200.,
(PID.TID 0000.0001) > taveFreq=7200.,
(PID.TID 0000.0001) > dumpFreq=7200.,
(PID.TID 0000.0001) > diagFreq=7200.,
(PID.TID 0000.0001) > monitorFreq=1200.,
(PID.TID 0000.0001) > cadjfreq=0.,
(PID.TID 0000.0001) > /
(PID.TID 0000.0001) >
(PID.TID 0000.0001) ># Gridding parameters
(PID.TID 0000.0001) > &PARM04
(PID.TID 0000.0001) > usingCartesianGrid=.TRUE.,
(PID.TID 0000.0001) > usingSphericalPolarGrid=.FALSE.,
(PID.TID 0000.0001) >  delR= 5d0, 5d0, 5d0, 5d0, 5d0,
(PID.TID 0000.0001) >    5d0, 5d0, 5d0, 5d0, 5d0,
(PID.TID 0000.0001) >    5d0, 5d0, 5d0, 5d0, 5d0,
(PID.TID 0000.0001) >    5d0, 5d0, 5d0, 5d0, 5d0,
(PID.TID 0000.0001) >    5d0, 5d0, 5d0, 5d0, 5d0,
(PID.TID 0000.0001) >    5d0, 5d0, 5d0, 5d0, 5d0,
(PID.TID 0000.0001) >    5d0, 5d0, 5d0, 5d0, 5d0,
(PID.TID 0000.0001) >    5d0, 5d0, 5d0, 5d0, 5d0,
(PID.TID 0000.0001) > dxspacing=1d3,
(PID.TID 0000.0001) > dyspacing=1d3,
(PID.TID 0000.0001) > /
(PID.TID 0000.0001) >
(PID.TID 0000.0001) ># Input datasets
(PID.TID 0000.0001) > &PARM05
(PID.TID 0000.0001) > bathyFile='topo_sl.bin',
(PID.TID 0000.0001) > hydrogThetaFile='thetaInitial.bin',
(PID.TID 0000.0001) > hydrogSaltFile='spiceInitial.bin',
(PID.TID 0000.0001) > /
(PID.TID 0000.0001) >
(PID.TID 0000.0001) 
(PID.TID 0000.0001) S/R INI_PARMS ; starts to read PARM01
(PID.TID 0000.0001) S/R INI_PARMS ; read PARM01 : OK
(PID.TID 0000.0001) S/R INI_PARMS ; starts to read PARM02
(PID.TID 0000.0001) S/R INI_PARMS ; read PARM02 : OK
(PID.TID 0000.0001) S/R INI_PARMS ; starts to read PARM03
(PID.TID 0000.0001) S/R INI_PARMS ; read PARM03 : OK
(PID.TID 0000.0001) S/R INI_PARMS ; starts to read PARM04
(PID.TID 0000.0001) S/R INI_PARMS ; read PARM04 : OK
(PID.TID 0000.0001) S/R INI_PARMS ; starts to read PARM05
(PID.TID 0000.0001) S/R INI_PARMS ; read PARM05 : OK
(PID.TID 0000.0001)  PACKAGES_BOOT: opening data.pkg
(PID.TID 0000.0001)  OPEN_COPY_DATA_FILE: opening file data.pkg
(PID.TID 0000.0001) // =======================================================
(PID.TID 0000.0001) // Parameter file "data.pkg"
(PID.TID 0000.0001) // =======================================================
(PID.TID 0000.0001) ># Packages
(PID.TID 0000.0001) > &PACKAGES
(PID.TID 0000.0001) >   useKPP     = .FALSE.,
(PID.TID 0000.0001) >   useMNC     = .TRUE.,
(PID.TID 0000.0001) >   useDIAGNOSTICS= .TRUE.,
(PID.TID 0000.0001) > /
(PID.TID 0000.0001) >
(PID.TID 0000.0001) 
(PID.TID 0000.0001)  PACKAGES_BOOT: finished reading data.pkg
(PID.TID 0000.0001)  MNC_READPARMS: opening file 'data.mnc'
(PID.TID 0000.0001) // =======================================================
(PID.TID 0000.0001) // Parameter file "data.mnc"
(PID.TID 0000.0001) // =======================================================
(PID.TID 0000.0001) ># Example "data.mnc" file
(PID.TID 0000.0001) ># Lines beginning "#" are comments
(PID.TID 0000.0001) > &MNC_01
(PID.TID 0000.0001) ># mnc_echo_gvtypes=.FALSE.,
(PID.TID 0000.0001) ># mnc_use_indir=.FALSE.,
(PID.TID 0000.0001) > mnc_use_outdir=.TRUE.,
(PID.TID 0000.0001) > mnc_outdir_str='input.0_',
(PID.TID 0000.0001) ># mnc_outdir_date=.TRUE.,
(PID.TID 0000.0001) > monitor_mnc=.FALSE.,
(PID.TID 0000.0001) > snapshot_mnc=.TRUE.,
(PID.TID 0000.0001) > timeave_mnc=.TRUE.,
(PID.TID 0000.0001) > pickup_write_mnc=.TRUE.,
(PID.TID 0000.0001) > pickup_read_mnc=.TRUE.,
(PID.TID 0000.0001) > /
(PID.TID 0000.0001) ># Note: Some systems use & as the
(PID.TID 0000.0001) ># namelist terminator. Other systems
(PID.TID 0000.0001) ># use a & character (as shown here).
(PID.TID 0000.0001) 
(PID.TID 0000.0001)  MNC_READPARMS: finished reading data.mnc
(PID.TID 0000.0001)  DIAGNOSTICS_READPARMS: opening data.diagnostics
(PID.TID 0000.0001)  OPEN_COPY_DATA_FILE: opening file data.diagnostics
(PID.TID 0000.0001) // =======================================================
(PID.TID 0000.0001) // Parameter file "data.diagnostics"
(PID.TID 0000.0001) // =======================================================
(PID.TID 0000.0001) ># Diagnostic Package Choices
(PID.TID 0000.0001) >#-----------------
(PID.TID 0000.0001) ># for each output-stream:
(PID.TID 0000.0001) >#  filename(n) : prefix of the output file name (only 8.c long) for outp.stream n
(PID.TID 0000.0001) >#  frequency(n):< 0 : write snap-shot output every multiple of |frequency| (iter)
(PID.TID 0000.0001) >#               > 0 : write time-average output every multiple of frequency (iter)
(PID.TID 0000.0001) >#  levels(:,n) : list of levels to write to file (Notes: declared as REAL)
(PID.TID 0000.0001) >#                 when this entry is missing, select all common levels of this list
(PID.TID 0000.0001) >#  fields(:,n) : list of diagnostics fields (8.c) (see "available_diagnostics" file
(PID.TID 0000.0001) >#                 for the list of all available diag. in this particular config)
(PID.TID 0000.0001) >#-----------------
(PID.TID 0000.0001) > &diagnostics_list
(PID.TID 0000.0001) >  diag_mnc=.TRUE.,
(PID.TID 0000.0001) >  frequency(1) = 72,
(PID.TID 0000.0001) >  fields(1,1) = 'UVELSLT ','VVELSLT ','WVELSLT ',
(PID.TID 0000.0001) >  filename(1) = 'spiceflx',
(PID.TID 0000.0001) >  frequency(2) = 72,
(PID.TID 0000.0001) >  fields(1,2) = 'UVELTH  ','VVELTH ','WVELTH ',
(PID.TID 0000.0001) >  filename(2) = 'thetaflx',
(PID.TID 0000.0001) > /
(PID.TID 0000.0001) >
(PID.TID 0000.0001) 
(PID.TID 0000.0001) -----------------------------------------------------
(PID.TID 0000.0001)  DIAGNOSTICS_READPARMS: active diagnostics summary:
(PID.TID 0000.0001) -----------------------------------------------------
(PID.TID 0000.0001) Creating Output Stream: spiceflx
(PID.TID 0000.0001)  Frequency:  72
(PID.TID 0000.0001)  Levels:    will be set later
(PID.TID 0000.0001)  Fields:    UVELSLT  VVELSLT  WVELSLT
(PID.TID 0000.0001) Creating Output Stream: thetaflx
(PID.TID 0000.0001)  Frequency:  72
(PID.TID 0000.0001)  Levels:    will be set later
(PID.TID 0000.0001)  Fields:    UVELTH   VVELTH   WVELTH
(PID.TID 0000.0001) -----------------------------------------------------
(PID.TID 0000.0001) 
(PID.TID 0000.0001) %MON XC_max                       =   4.9500000000000E+04
(PID.TID 0000.0001) %MON XC_min                       =   5.0000000000000E+02
(PID.TID 0000.0001) %MON XC_mean                      =   2.5000000000000E+04
(PID.TID 0000.0001) %MON XC_sd                        =   1.4430869689662E+04
(PID.TID 0000.0001) %MON XG_max                       =   4.9000000000000E+04
(PID.TID 0000.0001) %MON XG_min                       =   1.0000000000000E+03
(PID.TID 0000.0001) %MON XG_mean                      =   2.5000000000000E+04
(PID.TID 0000.0001) %MON XG_sd                        =   1.4142135623731E+04
(PID.TID 0000.0001) %MON DXC_max                      =   1.0000000000000E+03
(PID.TID 0000.0001) %MON DXC_min                      =   1.0000000000000E+03
(PID.TID 0000.0001) %MON DXC_mean                     =   1.0000000000000E+03
(PID.TID 0000.0001) %MON DXC_sd                       =   0.0000000000000E+00
(PID.TID 0000.0001) %MON DXF_max                      =   1.0000000000000E+03
(PID.TID 0000.0001) %MON DXF_min                      =   1.0000000000000E+03
(PID.TID 0000.0001) %MON DXF_mean                     =   1.0000000000000E+03
(PID.TID 0000.0001) %MON DXF_sd                       =   0.0000000000000E+00
(PID.TID 0000.0001) %MON DXG_max                      =   1.0000000000000E+03
(PID.TID 0000.0001) %MON DXG_min                      =   1.0000000000000E+03
(PID.TID 0000.0001) %MON DXG_mean                     =   1.0000000000000E+03
(PID.TID 0000.0001) %MON DXG_sd                       =   0.0000000000000E+00
(PID.TID 0000.0001) %MON DXV_max                      =   1.0000000000000E+03
(PID.TID 0000.0001) %MON DXV_min                      =   1.0000000000000E+03
(PID.TID 0000.0001) %MON DXV_mean                     =   1.0000000000000E+03
(PID.TID 0000.0001) %MON DXV_sd                       =   0.0000000000000E+00
(PID.TID 0000.0001) %MON YC_max                       =   2.5500000000000E+04
(PID.TID 0000.0001) %MON YC_min                       =   5.0000000000000E+02
(PID.TID 0000.0001) %MON YC_mean                      =   1.3000000000000E+04
(PID.TID 0000.0001) %MON YC_sd                        =   7.5000000000000E+03
(PID.TID 0000.0001) %MON YG_max                       =   2.5000000000000E+04
(PID.TID 0000.0001) %MON YG_min                       =   1.0000000000000E+03
(PID.TID 0000.0001) %MON YG_mean                      =   1.3000000000000E+04
(PID.TID 0000.0001) %MON YG_sd                        =   7.2111025509280E+03
(PID.TID 0000.0001) %MON DYC_max                      =   1.0000000000000E+03
(PID.TID 0000.0001) %MON DYC_min                      =   1.0000000000000E+03
(PID.TID 0000.0001) %MON DYC_mean                     =   1.0000000000000E+03
(PID.TID 0000.0001) %MON DYC_sd                       =   0.0000000000000E+00
(PID.TID 0000.0001) %MON DYF_max                      =   1.0000000000000E+03
(PID.TID 0000.0001) %MON DYF_min                      =   1.0000000000000E+03
(PID.TID 0000.0001) %MON DYF_mean                     =   1.0000000000000E+03
(PID.TID 0000.0001) %MON DYF_sd                       =   0.0000000000000E+00
(PID.TID 0000.0001) %MON DYG_max                      =   1.0000000000000E+03
(PID.TID 0000.0001) %MON DYG_min                      =   1.0000000000000E+03
(PID.TID 0000.0001) %MON DYG_mean                     =   1.0000000000000E+03
(PID.TID 0000.0001) %MON DYG_sd                       =   0.0000000000000E+00
(PID.TID 0000.0001) %MON DYU_max                      =   1.0000000000000E+03
(PID.TID 0000.0001) %MON DYU_min                      =   1.0000000000000E+03
(PID.TID 0000.0001) %MON DYU_mean                     =   1.0000000000000E+03
(PID.TID 0000.0001) %MON DYU_sd                       =   0.0000000000000E+00
(PID.TID 0000.0001) %MON RA_max                       =   1.0000000000000E+06
(PID.TID 0000.0001) %MON RA_min                       =   1.0000000000000E+06
(PID.TID 0000.0001) %MON RA_mean                      =   1.0000000000000E+06
(PID.TID 0000.0001) %MON RA_sd                        =   0.0000000000000E+00
(PID.TID 0000.0001) %MON RAW_max                      =   1.0000000000000E+06
(PID.TID 0000.0001) %MON RAW_min                      =   1.0000000000000E+06
(PID.TID 0000.0001) %MON RAW_mean                     =   1.0000000000000E+06
(PID.TID 0000.0001) %MON RAW_sd                       =   0.0000000000000E+00
(PID.TID 0000.0001) %MON RAS_max                      =   1.0000000000000E+06
(PID.TID 0000.0001) %MON RAS_min                      =   1.0000000000000E+06
(PID.TID 0000.0001) %MON RAS_mean                     =   1.0000000000000E+06
(PID.TID 0000.0001) %MON RAS_sd                       =   0.0000000000000E+00
(PID.TID 0000.0001) %MON RAZ_max                      =   1.0000000000000E+06
(PID.TID 0000.0001) %MON RAZ_min                      =   1.0000000000000E+06
(PID.TID 0000.0001) %MON RAZ_mean                     =   1.0000000000000E+06
(PID.TID 0000.0001) %MON RAZ_sd                       =   0.0000000000000E+00
(PID.TID 0000.0001)  MDSREADFIELD: opening global file: topo_sl.bin
(PID.TID 0000.0001) // =======================================================
(PID.TID 0000.0001) // Field Model R_low (ini_masks_etc) at iteration          1
(PID.TID 0000.0001) // CMIN =         -2.000000000000000E+02
(PID.TID 0000.0001) // CMAX =         -2.000000000000000E+02
(PID.TID 0000.0001) // CINT =          0.000000000000000E+00
(PID.TID 0000.0001) // SYMBOLS (CMIN->CMAX): -abcdefghijklmnopqrstuvwxyz+
(PID.TID 0000.0001) //                  0.0: .
(PID.TID 0000.0001) // RANGE I (Lo:Hi:Step):(  -2:  53:   1)
(PID.TID 0000.0001) // RANGE J (Lo:Hi:Step):(  29:  -2:  -1)
(PID.TID 0000.0001) // RANGE K (Lo:Hi:Step):(   1:   1:   1)
(PID.TID 0000.0001) // =======================================================
(PID.TID 0000.0001) // =======================================================
(PID.TID 0000.0001) // END OF FIELD                                          =
(PID.TID 0000.0001) // =======================================================
(PID.TID 0000.0001) 
(PID.TID 0000.0001) // =======================================================
(PID.TID 0000.0001) // Field Model Ro_surf (ini_masks_etc) at iteration          1
(PID.TID 0000.0001) // CMIN =          1.000000000000000E+32
(PID.TID 0000.0001) // CMAX =         -1.000000000000000E+32
(PID.TID 0000.0001) // CINT =          0.000000000000000E+00
(PID.TID 0000.0001) // SYMBOLS (CMIN->CMAX): -abcdefghijklmnopqrstuvwxyz+
(PID.TID 0000.0001) //                  0.0: .
(PID.TID 0000.0001) // RANGE I (Lo:Hi:Step):(  -2:  53:   1)
(PID.TID 0000.0001) // RANGE J (Lo:Hi:Step):(  29:  -2:  -1)
(PID.TID 0000.0001) // RANGE K (Lo:Hi:Step):(   1:   1:   1)
(PID.TID 0000.0001) // =======================================================
(PID.TID 0000.0001) // =======================================================
(PID.TID 0000.0001) // END OF FIELD                                          =
(PID.TID 0000.0001) // =======================================================
(PID.TID 0000.0001) 
(PID.TID 0000.0001) // =======================================================
(PID.TID 0000.0001) // Field hFacC at iteration          1
(PID.TID 0000.0001) // CMIN =          1.000000000000000E+00
(PID.TID 0000.0001) // CMAX =          1.000000000000000E+00
(PID.TID 0000.0001) // CINT =          0.000000000000000E+00
(PID.TID 0000.0001) // SYMBOLS (CMIN->CMAX): -abcdefghijklmnopqrstuvwxyz+
(PID.TID 0000.0001) //                  0.0: .
(PID.TID 0000.0001) // RANGE I (Lo:Hi:Step):(  -2:  53:   1)
(PID.TID 0000.0001) // RANGE J (Lo:Hi:Step):(  29:  -2:  -1)
(PID.TID 0000.0001) // RANGE K (Lo:Hi:Step):(   1:   1:   1)
(PID.TID 0000.0001) // =======================================================
(PID.TID 0000.0001) // =======================================================
(PID.TID 0000.0001) // END OF FIELD                                          =
(PID.TID 0000.0001) // =======================================================
(PID.TID 0000.0001) 
(PID.TID 0000.0001) // =======================================================
(PID.TID 0000.0001) // Field hFacW at iteration          1
(PID.TID 0000.0001) // CMIN =          1.000000000000000E+00
(PID.TID 0000.0001) // CMAX =          1.000000000000000E+00
(PID.TID 0000.0001) // CINT =          0.000000000000000E+00
(PID.TID 0000.0001) // SYMBOLS (CMIN->CMAX): -abcdefghijklmnopqrstuvwxyz+
(PID.TID 0000.0001) //                  0.0: .
(PID.TID 0000.0001) // RANGE I (Lo:Hi:Step):(  -2:  53:   1)
(PID.TID 0000.0001) // RANGE J (Lo:Hi:Step):(  29:  -2:  -1)
(PID.TID 0000.0001) // RANGE K (Lo:Hi:Step):(   1:   1:   1)
(PID.TID 0000.0001) // =======================================================
(PID.TID 0000.0001) // =======================================================
(PID.TID 0000.0001) // END OF FIELD                                          =
(PID.TID 0000.0001) // =======================================================
(PID.TID 0000.0001) 
(PID.TID 0000.0001) // =======================================================
(PID.TID 0000.0001) // Field hFacS at iteration          1
(PID.TID 0000.0001) // CMIN =          1.000000000000000E+00
(PID.TID 0000.0001) // CMAX =          1.000000000000000E+00
(PID.TID 0000.0001) // CINT =          0.000000000000000E+00
(PID.TID 0000.0001) // SYMBOLS (CMIN->CMAX): -abcdefghijklmnopqrstuvwxyz+
(PID.TID 0000.0001) //                  0.0: .
(PID.TID 0000.0001) // RANGE I (Lo:Hi:Step):(  -2:  53:   1)
(PID.TID 0000.0001) // RANGE J (Lo:Hi:Step):(  29:  -2:  -1)
(PID.TID 0000.0001) // RANGE K (Lo:Hi:Step):(   1:   1:   1)
(PID.TID 0000.0001) // =======================================================
(PID.TID 0000.0001) // =======================================================
(PID.TID 0000.0001) // END OF FIELD                                          =
(PID.TID 0000.0001) // =======================================================
(PID.TID 0000.0001) 
(PID.TID 0000.0001) 
(PID.TID 0000.0001) // ===================================
(PID.TID 0000.0001) // GAD parameters :
(PID.TID 0000.0001) // ===================================
(PID.TID 0000.0001) tempAdvScheme =   /* Temp. Horiz.Advection scheme selector */
(PID.TID 0000.0001)                      33
(PID.TID 0000.0001)     ;
(PID.TID 0000.0001) tempVertAdvScheme =   /* Temp. Vert. Advection scheme selector */
(PID.TID 0000.0001)                      33
(PID.TID 0000.0001)     ;
(PID.TID 0000.0001) tempMultiDimAdvec =   /* use Muti-Dim Advec method for Temp */
(PID.TID 0000.0001)                   T
(PID.TID 0000.0001)     ;
(PID.TID 0000.0001) tempAdamsBashforth =   /* use Adams-Bashforth time-stepping for Temp */
(PID.TID 0000.0001)                   F
(PID.TID 0000.0001)     ;
(PID.TID 0000.0001) saltAdvScheme =   /* Salt. Horiz.advection scheme selector */
(PID.TID 0000.0001)                      33
(PID.TID 0000.0001)     ;
(PID.TID 0000.0001) saltVertAdvScheme =   /* Salt. Vert. Advection scheme selector */
(PID.TID 0000.0001)                      33
(PID.TID 0000.0001)     ;
(PID.TID 0000.0001) saltMultiDimAdvec =   /* use Muti-Dim Advec method for Salt */
(PID.TID 0000.0001)                   T
(PID.TID 0000.0001)     ;
(PID.TID 0000.0001) saltAdamsBashforth =   /* use Adams-Bashforth time-stepping for Salt */
(PID.TID 0000.0001)                   F
(PID.TID 0000.0001)     ;
(PID.TID 0000.0001) // ===================================
(PID.TID 0000.0001) ------------------------------------------------------------
(PID.TID 0000.0001) DIAGNOSTICS_SET_LEVELS: done
(PID.TID 0000.0001)  Total Nb of available Diagnostics: ndiagt= 301
(PID.TID 0000.0001)  write list of available Diagnostics to file: available_diagnostics.log
(PID.TID 0000.0001) SETDIAG: Allocate 40 Levels for Diagnostic # 267 UVELSLT
(PID.TID 0000.0001) SETDIAG: Allocate 40 Levels for Diagnostic # 268 VVELSLT
(PID.TID 0000.0001) SETDIAG: Allocate 40 Levels for Diagnostic # 269 WVELSLT
(PID.TID 0000.0001) SETDIAG: Allocate 40 Levels for Diagnostic # 264 UVELTH
(PID.TID 0000.0001) SETDIAG: Allocate 40 Levels for Diagnostic # 265 VVELTH
(PID.TID 0000.0001) SETDIAG: Allocate 40 Levels for Diagnostic # 266 WVELTH
(PID.TID 0000.0001)   space allocated for all diagnostics:   240 levels
(PID.TID 0000.0001) DIAGNOSTICS_SET_POINTERS: Set levels for Outp.Stream: spiceflx
(PID.TID 0000.0001)  Levels:       1.   2.   3.   4.   5.   6.   7.   8.   9.  10.  11.  12.  13.  14.  15.  16.  17.  18.  19.  20.
(PID.TID 0000.0001)  Levels:      21.  22.  23.  24.  25.  26.  27.  28.  29.  30.  31.  32.  33.  34.  35.  36.  37.  38.  39.  40.
(PID.TID 0000.0001) DIAGNOSTICS_SET_POINTERS: Set levels for Outp.Stream: thetaflx
(PID.TID 0000.0001)  Levels:       1.   2.   3.   4.   5.   6.   7.   8.   9.  10.  11.  12.  13.  14.  15.  16.  17.  18.  19.  20.
(PID.TID 0000.0001)  Levels:      21.  22.  23.  24.  25.  26.  27.  28.  29.  30.  31.  32.  33.  34.  35.  36.  37.  38.  39.  40.
(PID.TID 0000.0001) DIAGNOSTICS_SET_POINTERS: done
(PID.TID 0000.0001) ------------------------------------------------------------
(PID.TID 0000.0001) %MON fCori_max                    =   7.2900000000000E-05
(PID.TID 0000.0001) %MON fCori_min                    =   7.2900000000000E-05
(PID.TID 0000.0001) %MON fCori_mean                   =   7.2900000000001E-05
(PID.TID 0000.0001) %MON fCori_sd                     =   6.6407383064737E-19
(PID.TID 0000.0001) %MON fCoriG_max                   =   7.2900000000000E-05
(PID.TID 0000.0001) %MON fCoriG_min                   =   7.2900000000000E-05
(PID.TID 0000.0001) %MON fCoriG_mean                  =   7.2900000000001E-05
(PID.TID 0000.0001) %MON fCoriG_sd                    =   6.6407383064737E-19
(PID.TID 0000.0001) %MON fCoriCos_max                 =   0.0000000000000E+00
(PID.TID 0000.0001) %MON fCoriCos_min                 =   0.0000000000000E+00
(PID.TID 0000.0001) %MON fCoriCos_mean                =   0.0000000000000E+00
(PID.TID 0000.0001) %MON fCoriCos_sd                  =   0.0000000000000E+00
(PID.TID 0000.0001) // CG2D normalisation factor =           .5000000000000000104083409E-02
(PID.TID 0000.0001) 
(PID.TID 0000.0001) CONFIG_CHECK: OK
(PID.TID 0000.0001) // =======================================================
(PID.TID 0000.0001) // Model configuration
(PID.TID 0000.0001) // =======================================================
(PID.TID 0000.0001) //
(PID.TID 0000.0001) // "Physical" paramters ( PARM01 in namelist )
(PID.TID 0000.0001) //
(PID.TID 0000.0001) buoyancyRelation = OCEANIC
(PID.TID 0000.0001) fluidIsAir  =  /* fluid major constituent is Air */
(PID.TID 0000.0001)                   F
(PID.TID 0000.0001)     ;
(PID.TID 0000.0001) fluidIsWater=  /* fuild major constituent is Water */
(PID.TID 0000.0001)                   T
(PID.TID 0000.0001)     ;
(PID.TID 0000.0001) usingPCoords =  /* use p (or p*) vertical coordinate */
(PID.TID 0000.0001)                   F
(PID.TID 0000.0001)     ;
(PID.TID 0000.0001) usingZCoords =  /* use z (or z*) vertical coordinate */
(PID.TID 0000.0001)                   T
(PID.TID 0000.0001)     ;
(PID.TID 0000.0001) tRef =   /* Reference temperature profile ( oC or oK ) */
(PID.TID 0000.0001)                 2.900000000000000E+01,      /* K =  1 */
(PID.TID 0000.0001)                 2.800000000000000E+01,      /* K =  2 */
(PID.TID 0000.0001)                 2.700000000000000E+01,      /* K =  3 */
(PID.TID 0000.0001)                 2.600000000000000E+01,      /* K =  4 */
(PID.TID 0000.0001)                 2.500000000000000E+01,      /* K =  5 */
(PID.TID 0000.0001)                 2.400000000000000E+01,      /* K =  6 */
(PID.TID 0000.0001)                 2.300000000000000E+01,      /* K =  7 */
(PID.TID 0000.0001)                 2.200000000000000E+01,      /* K =  8 */
(PID.TID 0000.0001)                 2.100000000000000E+01,      /* K =  9 */
(PID.TID 0000.0001)                 2.000000000000000E+01,      /* K = 10 */
(PID.TID 0000.0001)                 1.900000000000000E+01,      /* K = 11 */
(PID.TID 0000.0001)                 1.800000000000000E+01,      /* K = 12 */
(PID.TID 0000.0001)                 1.700000000000000E+01,      /* K = 13 */
(PID.TID 0000.0001)                 1.600000000000000E+01,      /* K = 14 */
(PID.TID 0000.0001)                 1.500000000000000E+01,      /* K = 15 */
(PID.TID 0000.0001)                 1.400000000000000E+01,      /* K = 16 */
(PID.TID 0000.0001)                 1.300000000000000E+01,      /* K = 17 */
(PID.TID 0000.0001)                 1.200000000000000E+01,      /* K = 18 */
(PID.TID 0000.0001)                 1.100000000000000E+01,      /* K = 19 */
(PID.TID 0000.0001)                 1.000000000000000E+01,      /* K = 20 */
(PID.TID 0000.0001)                 9.000000000000000E+00,      /* K = 21 */
(PID.TID 0000.0001)                 8.000000000000000E+00,      /* K = 22 */
(PID.TID 0000.0001)                 7.000000000000000E+00,      /* K = 23 */
(PID.TID 0000.0001)                 6.000000000000000E+00,      /* K = 24 */
(PID.TID 0000.0001)                 5.000000000000000E+00,      /* K = 25 */
(PID.TID 0000.0001)                 4.000000000000000E+00,      /* K = 26 */
(PID.TID 0000.0001)                 3.000000000000000E+00,      /* K = 27 */
(PID.TID 0000.0001)                 2.000000000000000E+00,      /* K = 28 */
(PID.TID 0000.0001)                 1.000000000000000E+00,      /* K = 29 */
(PID.TID 0000.0001)                 0.000000000000000E+00,      /* K = 30 */
(PID.TID 0000.0001)                -1.000000000000000E+00,      /* K = 31 */
(PID.TID 0000.0001)                -2.000000000000000E+00,      /* K = 32 */
(PID.TID 0000.0001)                -3.000000000000000E+00,      /* K = 33 */
(PID.TID 0000.0001)                -4.000000000000000E+00,      /* K = 34 */
(PID.TID 0000.0001)                -5.000000000000000E+00,      /* K = 35 */
(PID.TID 0000.0001)                -6.000000000000000E+00,      /* K = 36 */
(PID.TID 0000.0001)                -7.000000000000000E+00,      /* K = 37 */
(PID.TID 0000.0001)                -8.000000000000000E+00,      /* K = 38 */
(PID.TID 0000.0001)                -9.000000000000000E+00,      /* K = 39 */
(PID.TID 0000.0001)                -1.000000000000000E+01       /* K = 40 */
(PID.TID 0000.0001)     ;
(PID.TID 0000.0001) sRef =   /* Reference salinity profile ( ppt ) */
(PID.TID 0000.0001)    40 @  0.000000000000000E+00              /* K =  1: 40 */
(PID.TID 0000.0001)     ;
(PID.TID 0000.0001) viscAh =   /* Lateral eddy viscosity ( m^2/s ) */
(PID.TID 0000.0001)                 3.000000000000000E+01
(PID.TID 0000.0001)     ;
(PID.TID 0000.0001) viscAhMax =   /* Maximum lateral eddy viscosity ( m^2/s ) */
(PID.TID 0000.0001)                 1.000000000000000E+21
(PID.TID 0000.0001)     ;
(PID.TID 0000.0001) viscAhGrid =   /* Grid dependent lateral eddy viscosity ( non-dim. ) */
(PID.TID 0000.0001)                 0.000000000000000E+00
(PID.TID 0000.0001)     ;
(PID.TID 0000.0001) useFullLeith =   /* Use Full Form of Leith Viscosity on/off flag*/
(PID.TID 0000.0001)                   T
(PID.TID 0000.0001)     ;
(PID.TID 0000.0001) viscC2leith =   /* Leith harmonic viscosity factor ( on grad(vort), non-dim. ) */
(PID.TID 0000.0001)                 5.000000000000000E+00
(PID.TID 0000.0001)     ;
(PID.TID 0000.0001) viscC2leithD =   /* Leith harmonic viscosity factor ( on grad(div), non-dim. ) */
(PID.TID 0000.0001)                 0.000000000000000E+00
(PID.TID 0000.0001)     ;
(PID.TID 0000.0001) viscC2smag =   /* Smagorinsky harmonic viscosity factor (non-dim.) */
(PID.TID 0000.0001)                 0.000000000000000E+00
(PID.TID 0000.0001)     ;
(PID.TID 0000.0001) viscA4 =   /* Lateral biharmonic viscosity ( m^4/s ) */
(PID.TID 0000.0001)                 0.000000000000000E+00
(PID.TID 0000.0001)     ;
(PID.TID 0000.0001) viscA4Max =   /* Maximum biharmonic viscosity ( m^2/s ) */
(PID.TID 0000.0001)                 1.000000000000000E+21
(PID.TID 0000.0001)     ;
(PID.TID 0000.0001) viscA4Grid =   /* Grid dependent biharmonic viscosity ( non-dim. ) */
(PID.TID 0000.0001)                 0.000000000000000E+00
(PID.TID 0000.0001)     ;
(PID.TID 0000.0001) viscC4leith =   /* Leith biharmonic viscosity factor ( on grad(vort), non-dom. ) */
(PID.TID 0000.0001)                 0.000000000000000E+00
(PID.TID 0000.0001)     ;
(PID.TID 0000.0001) viscC4leithD =   /* Leith biharmonic viscosity factor ( on grad(div), non-dom. ) */
(PID.TID 0000.0001)                 0.000000000000000E+00
(PID.TID 0000.0001)     ;
(PID.TID 0000.0001) no_slip_sides =  /* Viscous BCs: No-slip sides */
(PID.TID 0000.0001)                   F
(PID.TID 0000.0001)     ;
(PID.TID 0000.0001) viscAr =   /* Vertical eddy viscosity ( units of r^2/s ) */
(PID.TID 0000.0001)                 5.000000000000000E-03
(PID.TID 0000.0001)     ;
(PID.TID 0000.0001) no_slip_bottom =  /* Viscous BCs: No-slip bottom */
(PID.TID 0000.0001)                   F
(PID.TID 0000.0001)     ;
(PID.TID 0000.0001) diffKhT =   /* Laplacian diffusion of heat laterally ( m^2/s ) */
(PID.TID 0000.0001)                 0.000000000000000E+00
(PID.TID 0000.0001)     ;
(PID.TID 0000.0001) diffK4T =   /* Bihaarmonic diffusion of heat laterally ( m^4/s ) */
(PID.TID 0000.0001)                 0.000000000000000E+00
(PID.TID 0000.0001)     ;
(PID.TID 0000.0001) diffKhS =   /* Laplacian diffusion of salt laterally ( m^2/s ) */
(PID.TID 0000.0001)                 0.000000000000000E+00
(PID.TID 0000.0001)     ;
(PID.TID 0000.0001) diffK4S =   /* Bihaarmonic diffusion of salt laterally ( m^4/s ) */
(PID.TID 0000.0001)                 0.000000000000000E+00
(PID.TID 0000.0001)     ;
(PID.TID 0000.0001) diffKrNrT = /* vertical profile of vertical diffusion of Temp ( m^2/s )*/
(PID.TID 0000.0001)    40 @  0.000000000000000E+00              /* K =  1: 40 */
(PID.TID 0000.0001)     ;
(PID.TID 0000.0001) diffKrNrS = /* vertical profile of vertical diffusion of Salt ( m^2/s )*/
(PID.TID 0000.0001)    40 @  0.000000000000000E+00              /* K =  1: 40 */
(PID.TID 0000.0001)     ;
(PID.TID 0000.0001) diffKrBL79surf =   /* Surface diffusion for Bryan and Lewis 1979 ( m^2/s ) */
(PID.TID 0000.0001)                 0.000000000000000E+00
(PID.TID 0000.0001)     ;
(PID.TID 0000.0001) diffKrBL79deep =   /* Deep diffusion for Bryan and Lewis 1979 ( m^2/s ) */
(PID.TID 0000.0001)                 0.000000000000000E+00
(PID.TID 0000.0001)     ;
(PID.TID 0000.0001) diffKrBL79scl =   /* Depth scale for Bryan and Lewis 1979 ( m ) */
(PID.TID 0000.0001)                 2.000000000000000E+02
(PID.TID 0000.0001)     ;
(PID.TID 0000.0001) diffKrBL79Ho =   /* Turning depth for Bryan and Lewis 1979 ( m ) */
(PID.TID 0000.0001)                -2.000000000000000E+03
(PID.TID 0000.0001)     ;
(PID.TID 0000.0001)  Equation of State : eosType = LINEAR
(PID.TID 0000.0001) tAlpha =   /* Linear EOS thermal expansion coefficient ( 1/degree ) */
(PID.TID 0000.0001)                 2.000000000000000E-04
(PID.TID 0000.0001)     ;
(PID.TID 0000.0001) sBeta =   /* Linear EOS haline contraction coefficient ( 1/ppt ) */
(PID.TID 0000.0001)                 0.000000000000000E+00
(PID.TID 0000.0001)     ;
(PID.TID 0000.0001) rhonil =   /* Reference density ( kg/m^3 ) */
(PID.TID 0000.0001)                 1.035000000000000E+03
(PID.TID 0000.0001)     ;
(PID.TID 0000.0001) rhoConst =   /* Reference density ( kg/m^3 ) */
(PID.TID 0000.0001)                 1.035000000000000E+03
(PID.TID 0000.0001)     ;
(PID.TID 0000.0001) rhoConstFresh =   /* Reference density ( kg/m^3 ) */
(PID.TID 0000.0001)                 1.035000000000000E+03
(PID.TID 0000.0001)     ;
(PID.TID 0000.0001) gravity =   /* Gravitational acceleration ( m/s^2 ) */
(PID.TID 0000.0001)                 9.810000000000000E+00
(PID.TID 0000.0001)     ;
(PID.TID 0000.0001) gBaro =   /* Barotropic gravity ( m/s^2 ) */
(PID.TID 0000.0001)                 9.810000000000000E+00
(PID.TID 0000.0001)     ;
(PID.TID 0000.0001) rotationPeriod =   /* Rotation Period ( s ) */
(PID.TID 0000.0001)                 8.640000000000000E+04
(PID.TID 0000.0001)     ;
(PID.TID 0000.0001) omega =   /* Angular velocity ( rad/s ) */
(PID.TID 0000.0001)                 7.272205216643040E-05
(PID.TID 0000.0001)     ;
(PID.TID 0000.0001) f0 =   /* Reference coriolis parameter ( 1/s ) */
(PID.TID 0000.0001)                 7.290000000000000E-05
(PID.TID 0000.0001)     ;
(PID.TID 0000.0001) beta =   /* Beta ( 1/(m.s) ) */
(PID.TID 0000.0001)                 0.000000000000000E+00
(PID.TID 0000.0001)     ;
(PID.TID 0000.0001) freeSurfFac =   /* Implicit free surface factor */
(PID.TID 0000.0001)                 1.000000000000000E+00
(PID.TID 0000.0001)     ;
(PID.TID 0000.0001) implicitFreeSurface =   /* Implicit free surface on/off flag */
(PID.TID 0000.0001)                   T
(PID.TID 0000.0001)     ;
(PID.TID 0000.0001) rigidLid =   /* Rigid lid on/off flag */
(PID.TID 0000.0001)                   F
(PID.TID 0000.0001)     ;
(PID.TID 0000.0001) implicSurfPress =   /* Surface Pressure implicit factor (0-1)*/
(PID.TID 0000.0001)                 1.000000000000000E+00
(PID.TID 0000.0001)     ;
(PID.TID 0000.0001) implicDiv2Dflow =   /* Barot. Flow Div. implicit factor (0-1)*/
(PID.TID 0000.0001)                 1.000000000000000E+00
(PID.TID 0000.0001)     ;
(PID.TID 0000.0001) exactConserv =   /* Exact Volume Conservation on/off flag*/
(PID.TID 0000.0001)                   F
(PID.TID 0000.0001)     ;
(PID.TID 0000.0001) uniformLin_PhiSurf =   /* use uniform Bo_surf on/off flag*/
(PID.TID 0000.0001)                   T
(PID.TID 0000.0001)     ;
(PID.TID 0000.0001) nonlinFreeSurf =   /* Non-linear Free Surf. options (-1,0,1,2,3)*/
(PID.TID 0000.0001)                       0
(PID.TID 0000.0001)     ;
(PID.TID 0000.0001)      -1,0= Off ; 1,2,3= On, 2=+rescale gU,gV, 3=+update cg2d solv.
(PID.TID 0000.0001) hFacInf =   /* lower threshold for hFac (nonlinFreeSurf only)*/
(PID.TID 0000.0001)                 2.000000000000000E-01
(PID.TID 0000.0001)     ;
(PID.TID 0000.0001) hFacSup =   /* upper threshold for hFac (nonlinFreeSurf only)*/
(PID.TID 0000.0001)                 2.000000000000000E+00
(PID.TID 0000.0001)     ;
(PID.TID 0000.0001) select_rStar =   /* r* Coordinate options (not yet implemented)*/
(PID.TID 0000.0001)                       0
(PID.TID 0000.0001)     ;
(PID.TID 0000.0001) useRealFreshWaterFlux =   /* Real Fresh Water Flux on/off flag*/
(PID.TID 0000.0001)                   F
(PID.TID 0000.0001)     ;
(PID.TID 0000.0001) convertFW2Salt = /* convert F.W. Flux to Salt Flux (-1=use local S)(ppt)*/
(PID.TID 0000.0001)                 3.500000000000000E+01
(PID.TID 0000.0001)     ;
(PID.TID 0000.0001) nonHydrostatic =  /* Non-Hydrostatic on/off flag */
(PID.TID 0000.0001)                   F
(PID.TID 0000.0001)     ;
(PID.TID 0000.0001) momStepping =  /* Momentum equation on/off flag */
(PID.TID 0000.0001)                   T
(PID.TID 0000.0001)     ;
(PID.TID 0000.0001) momAdvection =  /* Momentum advection on/off flag */
(PID.TID 0000.0001)                   T
(PID.TID 0000.0001)     ;
(PID.TID 0000.0001) momViscosity =  /* Momentum viscosity on/off flag */
(PID.TID 0000.0001)                   T
(PID.TID 0000.0001)     ;
(PID.TID 0000.0001) momImplVertAdv =/* Momentum implicit vert. advection on/off*/
(PID.TID 0000.0001)                   F
(PID.TID 0000.0001)     ;
(PID.TID 0000.0001) implicitViscosity = /* Implicit viscosity on/off flag */
(PID.TID 0000.0001)                   T
(PID.TID 0000.0001)     ;
(PID.TID 0000.0001) useCoriolis =  /* Coriolis on/off flag */
(PID.TID 0000.0001)                   T
(PID.TID 0000.0001)     ;
(PID.TID 0000.0001) useCDscheme =  /* CD scheme on/off flag */
(PID.TID 0000.0001)                   F
(PID.TID 0000.0001)     ;
(PID.TID 0000.0001) useJamartWetPoints= /* Coriolis WetPoints method flag */
(PID.TID 0000.0001)                   T
(PID.TID 0000.0001)     ;
(PID.TID 0000.0001) useJamartMomAdv= /* V.I. Non-linear terms Jamart flag */
(PID.TID 0000.0001)                   F
(PID.TID 0000.0001)     ;
(PID.TID 0000.0001) SadournyCoriolis= /* Sadourny Coriolis discr. flag */
(PID.TID 0000.0001)                   F
(PID.TID 0000.0001)     ;
(PID.TID 0000.0001) upwindVorticity= /* Upwind bias vorticity flag */
(PID.TID 0000.0001)                   F
(PID.TID 0000.0001)     ;
(PID.TID 0000.0001) useAbsVorticity= /* Work with f+zeta in Coriolis */
(PID.TID 0000.0001)                   F
(PID.TID 0000.0001)     ;
(PID.TID 0000.0001) highOrderVorticity= /* High order interp. of vort. flag */
(PID.TID 0000.0001)                   F
(PID.TID 0000.0001)     ;
(PID.TID 0000.0001) momForcing =  /* Momentum forcing on/off flag */
(PID.TID 0000.0001)                   T
(PID.TID 0000.0001)     ;
(PID.TID 0000.0001) momPressureForcing =  /* Momentum pressure term on/off flag */
(PID.TID 0000.0001)                   T
(PID.TID 0000.0001)     ;
(PID.TID 0000.0001) staggerTimeStep =   /* Stagger time stepping on/off flag */
(PID.TID 0000.0001)                   T
(PID.TID 0000.0001)     ;
(PID.TID 0000.0001) multiDimAdvection =   /* enable/disable Multi-Dim Advection */
(PID.TID 0000.0001)                   T
(PID.TID 0000.0001)     ;
(PID.TID 0000.0001) useMultiDimAdvec =   /* Multi-Dim Advection is/is-not used */
(PID.TID 0000.0001)                   T
(PID.TID 0000.0001)     ;
(PID.TID 0000.0001) implicitDiffusion =/* Implicit Diffusion on/off flag */
(PID.TID 0000.0001)                   T
(PID.TID 0000.0001)     ;
(PID.TID 0000.0001) tempStepping =  /* Temperature equation on/off flag */
(PID.TID 0000.0001)                   T
(PID.TID 0000.0001)     ;
(PID.TID 0000.0001) tempAdvection=  /* Temperature advection on/off flag */
(PID.TID 0000.0001)                   T
(PID.TID 0000.0001)     ;
(PID.TID 0000.0001) tempImplVertAdv =/* Temp. implicit vert. advection on/off */
(PID.TID 0000.0001)                   F
(PID.TID 0000.0001)     ;
(PID.TID 0000.0001) tempForcing  =  /* Temperature forcing on/off flag */
(PID.TID 0000.0001)                   T
(PID.TID 0000.0001)     ;
(PID.TID 0000.0001) saltStepping =  /* Salinity equation on/off flag */
(PID.TID 0000.0001)                   T
(PID.TID 0000.0001)     ;
(PID.TID 0000.0001) saltAdvection=  /* Salinity advection on/off flag */
(PID.TID 0000.0001)                   T
(PID.TID 0000.0001)     ;
(PID.TID 0000.0001) saltImplVertAdv =/* Sali. implicit vert. advection on/off */
(PID.TID 0000.0001)                   F
(PID.TID 0000.0001)     ;
(PID.TID 0000.0001) saltForcing  =  /* Salinity forcing on/off flag */
(PID.TID 0000.0001)                   T
(PID.TID 0000.0001)     ;
(PID.TID 0000.0001) //
(PID.TID 0000.0001) // Elliptic solver(s) paramters ( PARM02 in namelist )
(PID.TID 0000.0001) //
(PID.TID 0000.0001) cg2dMaxIters =   /* Upper limit on 2d con. grad iterations  */
(PID.TID 0000.0001)                    1000
(PID.TID 0000.0001)     ;
(PID.TID 0000.0001) cg2dChkResFreq =   /* 2d con. grad convergence test frequency */
(PID.TID 0000.0001)                       1
(PID.TID 0000.0001)     ;
(PID.TID 0000.0001) cg2dTargetResidual =   /* 2d con. grad target residual  */
(PID.TID 0000.0001)                 9.999999999999999E-12
(PID.TID 0000.0001)     ;
(PID.TID 0000.0001) cg2dTargetResWunit =   /* CG2d target residual [W units] */
(PID.TID 0000.0001)                -1.000000000000000E+00
(PID.TID 0000.0001)     ;
(PID.TID 0000.0001) cg2dPreCondFreq =   /* Freq. for updating cg2d preconditioner */
(PID.TID 0000.0001)                       1
(PID.TID 0000.0001)     ;
(PID.TID 0000.0001) //
(PID.TID 0000.0001) // Time stepping paramters ( PARM03 in namelist )
(PID.TID 0000.0001) //
(PID.TID 0000.0001) nIter0 =   /* Base timestep number  */
(PID.TID 0000.0001)                      36
(PID.TID 0000.0001)     ;
(PID.TID 0000.0001) nTimeSteps =   /* Number of timesteps */
(PID.TID 0000.0001)                      36
(PID.TID 0000.0001)     ;
(PID.TID 0000.0001) deltatTmom =   /* Momentum equation timestep ( s ) */
(PID.TID 0000.0001)                 1.200000000000000E+03
(PID.TID 0000.0001)     ;
(PID.TID 0000.0001) deltaTfreesurf =   /* FreeSurface equation timestep ( s ) */
(PID.TID 0000.0001)                 1.200000000000000E+03
(PID.TID 0000.0001)     ;
(PID.TID 0000.0001) dTtracerLev =   /* Tracer equation timestep ( s ) */
(PID.TID 0000.0001)    40 @  1.200000000000000E+03              /* K =  1: 40 */
(PID.TID 0000.0001)     ;
(PID.TID 0000.0001) deltatTClock  =   /* Model clock timestep ( s ) */
(PID.TID 0000.0001)                 1.200000000000000E+03
(PID.TID 0000.0001)     ;
(PID.TID 0000.0001) cAdjFreq =   /* Convective adjustment interval ( s ) */
(PID.TID 0000.0001)                 0.000000000000000E+00
(PID.TID 0000.0001)     ;
(PID.TID 0000.0001) forcing_In_AB =   /* put T,S Forcing in Adams-Bash. stepping */
(PID.TID 0000.0001)                   T
(PID.TID 0000.0001)     ;
(PID.TID 0000.0001) abeps =   /* Adams-Bashforth stabilizing weight */
(PID.TID 0000.0001)                 1.000000000000000E-02
(PID.TID 0000.0001)     ;
(PID.TID 0000.0001) startTime =   /* Run start time ( s ). */
(PID.TID 0000.0001)                 4.320000000000000E+04
(PID.TID 0000.0001)     ;
(PID.TID 0000.0001) endTime =   /* Integration ending time ( s ). */
(PID.TID 0000.0001)                 8.640000000000000E+04
(PID.TID 0000.0001)     ;
(PID.TID 0000.0001) pChkPtFreq =   /* Permanent restart/checkpoint file interval ( s ). */
(PID.TID 0000.0001)                 4.320000000000000E+04
(PID.TID 0000.0001)     ;
(PID.TID 0000.0001) chkPtFreq =   /* Rolling restart/checkpoint file interval ( s ). */
(PID.TID 0000.0001)                 0.000000000000000E+00
(PID.TID 0000.0001)     ;
(PID.TID 0000.0001) pickup_write_mdsio =   /* Model IO flag. */
(PID.TID 0000.0001)                   F
(PID.TID 0000.0001)     ;
(PID.TID 0000.0001) pickup_read_mdsio =   /* Model IO flag. */
(PID.TID 0000.0001)                   F
(PID.TID 0000.0001)     ;
(PID.TID 0000.0001) pickup_write_mnc =   /* Model IO flag. */
(PID.TID 0000.0001)                   T
(PID.TID 0000.0001)     ;
(PID.TID 0000.0001) pickup_read_mnc =   /* Model IO flag. */
(PID.TID 0000.0001)                   T
(PID.TID 0000.0001)     ;
(PID.TID 0000.0001) pickup_write_immed =   /* Model IO flag. */
(PID.TID 0000.0001)                   F
(PID.TID 0000.0001)     ;
(PID.TID 0000.0001) dumpFreq =   /* Model state write out interval ( s ). */
(PID.TID 0000.0001)                 7.200000000000000E+03
(PID.TID 0000.0001)     ;
(PID.TID 0000.0001) snapshot_mdsio =   /* Model IO flag. */
(PID.TID 0000.0001)                   F
(PID.TID 0000.0001)     ;
(PID.TID 0000.0001) snapshot_mnc =   /* Model IO flag. */
(PID.TID 0000.0001)                   T
(PID.TID 0000.0001)     ;
(PID.TID 0000.0001) monitorFreq =   /* Monitor output interval ( s ). */
(PID.TID 0000.0001)                 1.200000000000000E+03
(PID.TID 0000.0001)     ;
(PID.TID 0000.0001) monitor_stdio =   /* Model IO flag. */
(PID.TID 0000.0001)                   T
(PID.TID 0000.0001)     ;
(PID.TID 0000.0001) monitor_mnc =   /* Model IO flag. */
(PID.TID 0000.0001)                   F
(PID.TID 0000.0001)     ;
(PID.TID 0000.0001) externForcingPeriod =   /* forcing period (s) */
(PID.TID 0000.0001)                 0.000000000000000E+00
(PID.TID 0000.0001)     ;
(PID.TID 0000.0001) externForcingCycle =   /* period of the cyle (s). */
(PID.TID 0000.0001)                 0.000000000000000E+00
(PID.TID 0000.0001)     ;
(PID.TID 0000.0001) tauThetaClimRelax =   /* relaxation time scale (s) */
(PID.TID 0000.0001)                 0.000000000000000E+00
(PID.TID 0000.0001)     ;
(PID.TID 0000.0001) tauSaltClimRelax =   /* relaxation time scale (s) */
(PID.TID 0000.0001)                 0.000000000000000E+00
(PID.TID 0000.0001)     ;
(PID.TID 0000.0001) latBandClimRelax =   /* max. Lat. where relaxation */
(PID.TID 0000.0001)                 6.760000000000000E+05
(PID.TID 0000.0001)     ;
(PID.TID 0000.0001) //
(PID.TID 0000.0001) // Gridding paramters ( PARM04 in namelist )
(PID.TID 0000.0001) //
(PID.TID 0000.0001) usingCartesianGrid =   /* Cartesian coordinates flag ( True / False ) */
(PID.TID 0000.0001)                   T
(PID.TID 0000.0001)     ;
(PID.TID 0000.0001) usingSphericalPolarGrid =   /* Spherical coordinates flag ( True / False ) */
(PID.TID 0000.0001)                   F
(PID.TID 0000.0001)     ;
(PID.TID 0000.0001) usingCylindricalGrid =   /* Spherical coordinates flag ( True / False ) */
(PID.TID 0000.0001)                   F
(PID.TID 0000.0001)     ;
(PID.TID 0000.0001) groundAtK1 =   /* Lower Boundary (ground) at the surface(k=1) ( T / F ) */
(PID.TID 0000.0001)                   F
(PID.TID 0000.0001)     ;
(PID.TID 0000.0001) Ro_SeaLevel =   /* r(1) ( units of r ) */
(PID.TID 0000.0001)                 0.000000000000000E+00
(PID.TID 0000.0001)     ;
(PID.TID 0000.0001) rkFac =   /* minus Vertical index orientation  */
(PID.TID 0000.0001)                 1.000000000000000E+00
(PID.TID 0000.0001)     ;
(PID.TID 0000.0001) horiVertRatio =   /* Ratio on units : Horiz - Vertical */
(PID.TID 0000.0001)                 1.000000000000000E+00
(PID.TID 0000.0001)     ;
(PID.TID 0000.0001) drC =   /* C spacing ( units of r ) */
(PID.TID 0000.0001)                 2.500000000000000E+00,      /* K =  1 */
(PID.TID 0000.0001)    39 @  5.000000000000000E+00              /* K =  2: 40 */
(PID.TID 0000.0001)     ;
(PID.TID 0000.0001) drF =   /* W spacing ( units of r ) */
(PID.TID 0000.0001)    40 @  5.000000000000000E+00              /* K =  1: 40 */
(PID.TID 0000.0001)     ;
(PID.TID 0000.0001) delX =   /* U spacing ( m - cartesian, degrees - spherical ) */
(PID.TID 0000.0001)    50 @  1.000000000000000E+03              /* I =  1: 50 */
(PID.TID 0000.0001)     ;
(PID.TID 0000.0001) delY =   /* V spacing ( m - cartesian, degrees - spherical ) */
(PID.TID 0000.0001)    26 @  1.000000000000000E+03              /* J =  1: 26 */
(PID.TID 0000.0001)     ;
(PID.TID 0000.0001) phiMin =    /* South edge (ignored - cartesian, degrees - spherical ) */
(PID.TID 0000.0001)                 0.000000000000000E+00
(PID.TID 0000.0001)     ;
(PID.TID 0000.0001) thetaMin =    /* West edge ( ignored - cartesian, degrees - spherical ) */
(PID.TID 0000.0001)                 0.000000000000000E+00
(PID.TID 0000.0001)     ;
(PID.TID 0000.0001) rSphere =    /* Radius ( ignored - cartesian, m - spherical ) */
(PID.TID 0000.0001)                 6.370000000000000E+06
(PID.TID 0000.0001)     ;
(PID.TID 0000.0001) xcoord =   /* P-point X coord ( m - cartesian, degrees - spherical ) */
(PID.TID 0000.0001)                 5.000000000000000E+02,      /* I =  1 */
(PID.TID 0000.0001)                 1.500000000000000E+03,      /* I =  2 */
(PID.TID 0000.0001)                 2.500000000000000E+03,      /* I =  3 */
(PID.TID 0000.0001)                 3.500000000000000E+03,      /* I =  4 */
(PID.TID 0000.0001)                 4.500000000000000E+03,      /* I =  5 */
(PID.TID 0000.0001)                 5.500000000000000E+03,      /* I =  6 */
(PID.TID 0000.0001)                 6.500000000000000E+03,      /* I =  7 */
(PID.TID 0000.0001)                 7.500000000000000E+03,      /* I =  8 */
(PID.TID 0000.0001)                 8.500000000000000E+03,      /* I =  9 */
(PID.TID 0000.0001)                 9.500000000000000E+03,      /* I = 10 */
(PID.TID 0000.0001)                 1.050000000000000E+04,      /* I = 11 */
(PID.TID 0000.0001)                 1.150000000000000E+04,      /* I = 12 */
(PID.TID 0000.0001)                 1.250000000000000E+04,      /* I = 13 */
(PID.TID 0000.0001)                 1.350000000000000E+04,      /* I = 14 */
(PID.TID 0000.0001)                 1.450000000000000E+04,      /* I = 15 */
(PID.TID 0000.0001)                 1.550000000000000E+04,      /* I = 16 */
(PID.TID 0000.0001)                 1.650000000000000E+04,      /* I = 17 */
(PID.TID 0000.0001)                 1.750000000000000E+04,      /* I = 18 */
(PID.TID 0000.0001)                 1.850000000000000E+04,      /* I = 19 */
(PID.TID 0000.0001)                 1.950000000000000E+04,      /* I = 20 */
(PID.TID 0000.0001)                 2.050000000000000E+04,      /* I = 21 */
(PID.TID 0000.0001)                 2.150000000000000E+04,      /* I = 22 */
(PID.TID 0000.0001)                 2.250000000000000E+04,      /* I = 23 */
(PID.TID 0000.0001)                 2.350000000000000E+04,      /* I = 24 */
(PID.TID 0000.0001)                 2.450000000000000E+04,      /* I = 25 */
(PID.TID 0000.0001)                 2.550000000000000E+04,      /* I = 26 */
(PID.TID 0000.0001)                 2.650000000000000E+04,      /* I = 27 */
(PID.TID 0000.0001)                 2.750000000000000E+04,      /* I = 28 */
(PID.TID 0000.0001)                 2.850000000000000E+04,      /* I = 29 */
(PID.TID 0000.0001)                 2.950000000000000E+04,      /* I = 30 */
(PID.TID 0000.0001)                 3.050000000000000E+04,      /* I = 31 */
(PID.TID 0000.0001)                 3.150000000000000E+04,      /* I = 32 */
(PID.TID 0000.0001)                 3.250000000000000E+04,      /* I = 33 */
(PID.TID 0000.0001)                 3.350000000000000E+04,      /* I = 34 */
(PID.TID 0000.0001)                 3.450000000000000E+04,      /* I = 35 */
(PID.TID 0000.0001)                 3.550000000000000E+04,      /* I = 36 */
(PID.TID 0000.0001)                 3.650000000000000E+04,      /* I = 37 */
(PID.TID 0000.0001)                 3.750000000000000E+04,      /* I = 38 */
(PID.TID 0000.0001)                 3.850000000000000E+04,      /* I = 39 */
(PID.TID 0000.0001)                 3.950000000000000E+04,      /* I = 40 */
(PID.TID 0000.0001)                 4.050000000000000E+04,      /* I = 41 */
(PID.TID 0000.0001)                 4.150000000000000E+04,      /* I = 42 */
(PID.TID 0000.0001)                 4.250000000000000E+04,      /* I = 43 */
(PID.TID 0000.0001)                 4.350000000000000E+04,      /* I = 44 */
(PID.TID 0000.0001)                 4.450000000000000E+04,      /* I = 45 */
(PID.TID 0000.0001)                 4.550000000000000E+04,      /* I = 46 */
(PID.TID 0000.0001)                 4.650000000000000E+04,      /* I = 47 */
(PID.TID 0000.0001)                 4.750000000000000E+04,      /* I = 48 */
(PID.TID 0000.0001)                 4.850000000000000E+04,      /* I = 49 */
(PID.TID 0000.0001)                 4.950000000000000E+04       /* I = 50 */
(PID.TID 0000.0001)     ;
(PID.TID 0000.0001) ycoord =   /* P-point Y coord ( m - cartesian, degrees - spherical ) */
(PID.TID 0000.0001)                 5.000000000000000E+02,      /* J =  1 */
(PID.TID 0000.0001)                 1.500000000000000E+03,      /* J =  2 */
(PID.TID 0000.0001)                 2.500000000000000E+03,      /* J =  3 */
(PID.TID 0000.0001)                 3.500000000000000E+03,      /* J =  4 */
(PID.TID 0000.0001)                 4.500000000000000E+03,      /* J =  5 */
(PID.TID 0000.0001)                 5.500000000000000E+03,      /* J =  6 */
(PID.TID 0000.0001)                 6.500000000000000E+03,      /* J =  7 */
(PID.TID 0000.0001)                 7.500000000000000E+03,      /* J =  8 */
(PID.TID 0000.0001)                 8.500000000000000E+03,      /* J =  9 */
(PID.TID 0000.0001)                 9.500000000000000E+03,      /* J = 10 */
(PID.TID 0000.0001)                 1.050000000000000E+04,      /* J = 11 */
(PID.TID 0000.0001)                 1.150000000000000E+04,      /* J = 12 */
(PID.TID 0000.0001)                 1.250000000000000E+04,      /* J = 13 */
(PID.TID 0000.0001)                 1.350000000000000E+04,      /* J = 14 */
(PID.TID 0000.0001)                 1.450000000000000E+04,      /* J = 15 */
(PID.TID 0000.0001)                 1.550000000000000E+04,      /* J = 16 */
(PID.TID 0000.0001)                 1.650000000000000E+04,      /* J = 17 */
(PID.TID 0000.0001)                 1.750000000000000E+04,      /* J = 18 */
(PID.TID 0000.0001)                 1.850000000000000E+04,      /* J = 19 */
(PID.TID 0000.0001)                 1.950000000000000E+04,      /* J = 20 */
(PID.TID 0000.0001)                 2.050000000000000E+04,      /* J = 21 */
(PID.TID 0000.0001)                 2.150000000000000E+04,      /* J = 22 */
(PID.TID 0000.0001)                 2.250000000000000E+04,      /* J = 23 */
(PID.TID 0000.0001)                 2.350000000000000E+04,      /* J = 24 */
(PID.TID 0000.0001)                 2.450000000000000E+04,      /* J = 25 */
(PID.TID 0000.0001)                 2.550000000000000E+04       /* J = 26 */
(PID.TID 0000.0001)     ;
(PID.TID 0000.0001) rcoord =   /* P-point R coordinate (  units of r ) */
(PID.TID 0000.0001)                -2.500000000000000E+00,      /* K =  1 */
(PID.TID 0000.0001)                -7.500000000000000E+00,      /* K =  2 */
(PID.TID 0000.0001)                -1.250000000000000E+01,      /* K =  3 */
(PID.TID 0000.0001)                -1.750000000000000E+01,      /* K =  4 */
(PID.TID 0000.0001)                -2.250000000000000E+01,      /* K =  5 */
(PID.TID 0000.0001)                -2.750000000000000E+01,      /* K =  6 */
(PID.TID 0000.0001)                -3.250000000000000E+01,      /* K =  7 */
(PID.TID 0000.0001)                -3.750000000000000E+01,      /* K =  8 */
(PID.TID 0000.0001)                -4.250000000000000E+01,      /* K =  9 */
(PID.TID 0000.0001)                -4.750000000000000E+01,      /* K = 10 */
(PID.TID 0000.0001)                -5.250000000000000E+01,      /* K = 11 */
(PID.TID 0000.0001)                -5.750000000000000E+01,      /* K = 12 */
(PID.TID 0000.0001)                -6.250000000000000E+01,      /* K = 13 */
(PID.TID 0000.0001)                -6.750000000000000E+01,      /* K = 14 */
(PID.TID 0000.0001)                -7.250000000000000E+01,      /* K = 15 */
(PID.TID 0000.0001)                -7.750000000000000E+01,      /* K = 16 */
(PID.TID 0000.0001)                -8.250000000000000E+01,      /* K = 17 */
(PID.TID 0000.0001)                -8.750000000000000E+01,      /* K = 18 */
(PID.TID 0000.0001)                -9.250000000000000E+01,      /* K = 19 */
(PID.TID 0000.0001)                -9.750000000000000E+01,      /* K = 20 */
(PID.TID 0000.0001)                -1.025000000000000E+02,      /* K = 21 */
(PID.TID 0000.0001)                -1.075000000000000E+02,      /* K = 22 */
(PID.TID 0000.0001)                -1.125000000000000E+02,      /* K = 23 */
(PID.TID 0000.0001)                -1.175000000000000E+02,      /* K = 24 */
(PID.TID 0000.0001)                -1.225000000000000E+02,      /* K = 25 */
(PID.TID 0000.0001)                -1.275000000000000E+02,      /* K = 26 */
(PID.TID 0000.0001)                -1.325000000000000E+02,      /* K = 27 */
(PID.TID 0000.0001)                -1.375000000000000E+02,      /* K = 28 */
(PID.TID 0000.0001)                -1.425000000000000E+02,      /* K = 29 */
(PID.TID 0000.0001)                -1.475000000000000E+02,      /* K = 30 */
(PID.TID 0000.0001)                -1.525000000000000E+02,      /* K = 31 */
(PID.TID 0000.0001)                -1.575000000000000E+02,      /* K = 32 */
(PID.TID 0000.0001)                -1.625000000000000E+02,      /* K = 33 */
(PID.TID 0000.0001)                -1.675000000000000E+02,      /* K = 34 */
(PID.TID 0000.0001)                -1.725000000000000E+02,      /* K = 35 */
(PID.TID 0000.0001)                -1.775000000000000E+02,      /* K = 36 */
(PID.TID 0000.0001)                -1.825000000000000E+02,      /* K = 37 */
(PID.TID 0000.0001)                -1.875000000000000E+02,      /* K = 38 */
(PID.TID 0000.0001)                -1.925000000000000E+02,      /* K = 39 */
(PID.TID 0000.0001)                -1.975000000000000E+02       /* K = 40 */
(PID.TID 0000.0001)     ;
(PID.TID 0000.0001) rF =   /* W-Interf. R coordinate (  units of r ) */
(PID.TID 0000.0001)                 0.000000000000000E+00,      /* K =  1 */
(PID.TID 0000.0001)                -5.000000000000000E+00,      /* K =  2 */
(PID.TID 0000.0001)                -1.000000000000000E+01,      /* K =  3 */
(PID.TID 0000.0001)                -1.500000000000000E+01,      /* K =  4 */
(PID.TID 0000.0001)                -2.000000000000000E+01,      /* K =  5 */
(PID.TID 0000.0001)                -2.500000000000000E+01,      /* K =  6 */
(PID.TID 0000.0001)                -3.000000000000000E+01,      /* K =  7 */
(PID.TID 0000.0001)                -3.500000000000000E+01,      /* K =  8 */
(PID.TID 0000.0001)                -4.000000000000000E+01,      /* K =  9 */
(PID.TID 0000.0001)                -4.500000000000000E+01,      /* K = 10 */
(PID.TID 0000.0001)                -5.000000000000000E+01,      /* K = 11 */
(PID.TID 0000.0001)                -5.500000000000000E+01,      /* K = 12 */
(PID.TID 0000.0001)                -6.000000000000000E+01,      /* K = 13 */
(PID.TID 0000.0001)                -6.500000000000000E+01,      /* K = 14 */
(PID.TID 0000.0001)                -7.000000000000000E+01,      /* K = 15 */
(PID.TID 0000.0001)                -7.500000000000000E+01,      /* K = 16 */
(PID.TID 0000.0001)                -8.000000000000000E+01,      /* K = 17 */
(PID.TID 0000.0001)                -8.500000000000000E+01,      /* K = 18 */
(PID.TID 0000.0001)                -9.000000000000000E+01,      /* K = 19 */
(PID.TID 0000.0001)                -9.500000000000000E+01,      /* K = 20 */
(PID.TID 0000.0001)                -1.000000000000000E+02,      /* K = 21 */
(PID.TID 0000.0001)                -1.050000000000000E+02,      /* K = 22 */
(PID.TID 0000.0001)                -1.100000000000000E+02,      /* K = 23 */
(PID.TID 0000.0001)                -1.150000000000000E+02,      /* K = 24 */
(PID.TID 0000.0001)                -1.200000000000000E+02,      /* K = 25 */
(PID.TID 0000.0001)                -1.250000000000000E+02,      /* K = 26 */
(PID.TID 0000.0001)                -1.300000000000000E+02,      /* K = 27 */
(PID.TID 0000.0001)                -1.350000000000000E+02,      /* K = 28 */
(PID.TID 0000.0001)                -1.400000000000000E+02,      /* K = 29 */
(PID.TID 0000.0001)                -1.450000000000000E+02,      /* K = 30 */
(PID.TID 0000.0001)                -1.500000000000000E+02,      /* K = 31 */
(PID.TID 0000.0001)                -1.550000000000000E+02,      /* K = 32 */
(PID.TID 0000.0001)                -1.600000000000000E+02,      /* K = 33 */
(PID.TID 0000.0001)                -1.650000000000000E+02,      /* K = 34 */
(PID.TID 0000.0001)                -1.700000000000000E+02,      /* K = 35 */
(PID.TID 0000.0001)                -1.750000000000000E+02,      /* K = 36 */
(PID.TID 0000.0001)                -1.800000000000000E+02,      /* K = 37 */
(PID.TID 0000.0001)                -1.850000000000000E+02,      /* K = 38 */
(PID.TID 0000.0001)                -1.900000000000000E+02,      /* K = 39 */
(PID.TID 0000.0001)                -1.950000000000000E+02,      /* K = 40 */
(PID.TID 0000.0001)                -2.000000000000000E+02       /* K = 41 */
(PID.TID 0000.0001)     ;
(PID.TID 0000.0001) dxF =  /* dxF(:,1,:,1) ( m - cartesian, degrees - spherical ) */
(PID.TID 0000.0001)    50 @  1.000000000000000E+03              /* I =  1: 50 */
(PID.TID 0000.0001)     ;
(PID.TID 0000.0001) dxF =  /* dxF(1,:,1,:) ( m - cartesian, degrees - spherical ) */
(PID.TID 0000.0001)    26 @  1.000000000000000E+03              /* J =  1: 26 */
(PID.TID 0000.0001)     ;
(PID.TID 0000.0001) dyF =  /* dyF(:,1,:,1) ( m - cartesian, degrees - spherical ) */
(PID.TID 0000.0001)    50 @  1.000000000000000E+03              /* I =  1: 50 */
(PID.TID 0000.0001)     ;
(PID.TID 0000.0001) dyF =  /* dyF(1,:,1,:) ( m - cartesian, degrees - spherical ) */
(PID.TID 0000.0001)    26 @  1.000000000000000E+03              /* J =  1: 26 */
(PID.TID 0000.0001)     ;
(PID.TID 0000.0001) dxG =  /* dxG(:,1,:,1) ( m - cartesian, degrees - spherical ) */
(PID.TID 0000.0001)    50 @  1.000000000000000E+03              /* I =  1: 50 */
(PID.TID 0000.0001)     ;
(PID.TID 0000.0001) dxG =  /* dxG(1,:,1,:) ( m - cartesian, degrees - spherical ) */
(PID.TID 0000.0001)    26 @  1.000000000000000E+03              /* J =  1: 26 */
(PID.TID 0000.0001)     ;
(PID.TID 0000.0001) dyG =  /* dyG(:,1,:,1) ( m - cartesian, degrees - spherical ) */
(PID.TID 0000.0001)    50 @  1.000000000000000E+03              /* I =  1: 50 */
(PID.TID 0000.0001)     ;
(PID.TID 0000.0001) dyG =  /* dyG(1,:,1,:) ( m - cartesian, degrees - spherical ) */
(PID.TID 0000.0001)    26 @  1.000000000000000E+03              /* J =  1: 26 */
(PID.TID 0000.0001)     ;
(PID.TID 0000.0001) dxC =  /* dxC(:,1,:,1) ( m - cartesian, degrees - spherical ) */
(PID.TID 0000.0001)    50 @  1.000000000000000E+03              /* I =  1: 50 */
(PID.TID 0000.0001)     ;
(PID.TID 0000.0001) dxC =  /* dxC(1,:,1,:) ( m - cartesian, degrees - spherical ) */
(PID.TID 0000.0001)    26 @  1.000000000000000E+03              /* J =  1: 26 */
(PID.TID 0000.0001)     ;
(PID.TID 0000.0001) dyC =  /* dyC(:,1,:,1) ( m - cartesian, degrees - spherical ) */
(PID.TID 0000.0001)    50 @  1.000000000000000E+03              /* I =  1: 50 */
(PID.TID 0000.0001)     ;
(PID.TID 0000.0001) dyC =  /* dyC(1,:,1,:) ( m - cartesian, degrees - spherical ) */
(PID.TID 0000.0001)    26 @  1.000000000000000E+03              /* J =  1: 26 */
(PID.TID 0000.0001)     ;
(PID.TID 0000.0001) dxV =  /* dxV(:,1,:,1) ( m - cartesian, degrees - spherical ) */
(PID.TID 0000.0001)    50 @  1.000000000000000E+03              /* I =  1: 50 */
(PID.TID 0000.0001)     ;
(PID.TID 0000.0001) dxV =  /* dxV(1,:,1,:) ( m - cartesian, degrees - spherical ) */
(PID.TID 0000.0001)    26 @  1.000000000000000E+03              /* J =  1: 26 */
(PID.TID 0000.0001)     ;
(PID.TID 0000.0001) dyU =  /* dyU(:,1,:,1) ( m - cartesian, degrees - spherical ) */
(PID.TID 0000.0001)    50 @  1.000000000000000E+03              /* I =  1: 50 */
(PID.TID 0000.0001)     ;
(PID.TID 0000.0001) dyU =  /* dyU(1,:,1,:) ( m - cartesian, degrees - spherical ) */
(PID.TID 0000.0001)    26 @  1.000000000000000E+03              /* J =  1: 26 */
(PID.TID 0000.0001)     ;
(PID.TID 0000.0001) rA =  /* rA(:,1,:,1) ( m - cartesian, degrees - spherical ) */
(PID.TID 0000.0001)    50 @  1.000000000000000E+06              /* I =  1: 50 */
(PID.TID 0000.0001)     ;
(PID.TID 0000.0001) rA =  /* rA(1,:,1,:) ( m - cartesian, degrees - spherical ) */
(PID.TID 0000.0001)    26 @  1.000000000000000E+06              /* J =  1: 26 */
(PID.TID 0000.0001)     ;
(PID.TID 0000.0001) rAw =  /* rAw(:,1,:,1) ( m - cartesian, degrees - spherical ) */
(PID.TID 0000.0001)    50 @  1.000000000000000E+06              /* I =  1: 50 */
(PID.TID 0000.0001)     ;
(PID.TID 0000.0001) rAw =  /* rAw(1,:,1,:) ( m - cartesian, degrees - spherical ) */
(PID.TID 0000.0001)    26 @  1.000000000000000E+06              /* J =  1: 26 */
(PID.TID 0000.0001)     ;
(PID.TID 0000.0001) rAs =  /* rAs(:,1,:,1) ( m - cartesian, degrees - spherical ) */
(PID.TID 0000.0001)    50 @  1.000000000000000E+06              /* I =  1: 50 */
(PID.TID 0000.0001)     ;
(PID.TID 0000.0001) rAs =  /* rAs(1,:,1,:) ( m - cartesian, degrees - spherical ) */
(PID.TID 0000.0001)    26 @  1.000000000000000E+06              /* J =  1: 26 */
(PID.TID 0000.0001)     ;
(PID.TID 0000.0001) 
(PID.TID 0000.0001) // =======================================================
(PID.TID 0000.0001) // Model current state
(PID.TID 0000.0001) // =======================================================
(PID.TID 0000.0001) 
(PID.TID 0000.0001) // =======================================================
(PID.TID 0000.0001) // Begin MONITOR dynamic field statistics
(PID.TID 0000.0001) // =======================================================
(PID.TID 0000.0001) %MON time_tsnumber                =                    36
(PID.TID 0000.0001) %MON time_secondsf                =   4.3200000000000E+04
(PID.TID 0000.0001) %MON dynstat_eta_max              =   3.9656950777929E-04
(PID.TID 0000.0001) %MON dynstat_eta_min              =  -4.1893525696392E-04
(PID.TID 0000.0001) %MON dynstat_eta_mean             =   8.1567440452512E-17
(PID.TID 0000.0001) %MON dynstat_eta_sd               =   3.7353302717594E-04
(PID.TID 0000.0001) %MON dynstat_eta_del2             =   3.9494366525211E-06
(PID.TID 0000.0001) %MON dynstat_uvel_max             =   4.0776032441076E-02
(PID.TID 0000.0001) %MON dynstat_uvel_min             =  -4.0777752165368E-02
(PID.TID 0000.0001) %MON dynstat_uvel_mean            =  -9.1456859423341E-07
(PID.TID 0000.0001) %MON dynstat_uvel_sd              =   9.6713177501082E-03
(PID.TID 0000.0001) %MON dynstat_uvel_del2            =   3.4756307714074E-04
(PID.TID 0000.0001) %MON dynstat_vvel_max             =   6.0615034666724E-03
(PID.TID 0000.0001) %MON dynstat_vvel_min             =  -6.0596377369966E-03
(PID.TID 0000.0001) %MON dynstat_vvel_mean            =   1.4713291388698E-10
(PID.TID 0000.0001) %MON dynstat_vvel_sd              =   1.0772247231727E-03
(PID.TID 0000.0001) %MON dynstat_vvel_del2            =   1.4971079989611E-04
(PID.TID 0000.0001) %MON dynstat_wvel_max             =   2.6103058521350E-04
(PID.TID 0000.0001) %MON dynstat_wvel_min             =  -2.6031077487261E-04
(PID.TID 0000.0001) %MON dynstat_wvel_mean            =   1.7741217011764E-22
(PID.TID 0000.0001) %MON dynstat_wvel_sd              =   5.7995794048929E-05
(PID.TID 0000.0001) %MON dynstat_wvel_del2            =   1.3157783765381E-05
(PID.TID 0000.0001) %MON dynstat_theta_max            =   1.7020391872709E+01
(PID.TID 0000.0001) %MON dynstat_theta_min            =   1.6979608188987E+01
(PID.TID 0000.0001) %MON dynstat_theta_mean           =   1.6999999916812E+01
(PID.TID 0000.0001) %MON dynstat_theta_sd             =   1.8680389309433E-02
(PID.TID 0000.0001) %MON dynstat_theta_del2           =   1.9623434894616E-04
(PID.TID 0000.0001) %MON dynstat_salt_max             =   1.7020387109310E+01
(PID.TID 0000.0001) %MON dynstat_salt_min             =   1.6979612982853E+01
(PID.TID 0000.0001) %MON dynstat_salt_mean            =   1.7000000005832E+01
(PID.TID 0000.0001) %MON dynstat_salt_sd              =   1.8684493932753E-02
(PID.TID 0000.0001) %MON dynstat_salt_del2            =   1.9211878151543E-04
(PID.TID 0000.0001) %MON advcfl_uvel_max              =   4.8933302598442E-02
(PID.TID 0000.0001) %MON advcfl_vvel_max              =   7.2738041600068E-03
(PID.TID 0000.0001) %MON advcfl_wvel_max              =   6.2647340451240E-02
(PID.TID 0000.0001) %MON advcfl_W_hf_max              =   6.2647340451240E-02
(PID.TID 0000.0001) %MON pe_b_mean                    =   3.4218977716447E-09
(PID.TID 0000.0001) %MON ke_max                       =   8.4433562791639E-04
(PID.TID 0000.0001) %MON ke_mean                      =   4.7324192220021E-05
(PID.TID 0000.0001) %MON ke_vol                       =   2.5000000000000E+11
(PID.TID 0000.0001) %MON vort_r_min                   =  -1.3939018067936E-05
(PID.TID 0000.0001) %MON vort_r_max                   =   1.5462961637274E-05
(PID.TID 0000.0001) %MON vort_a_mean                  =   7.2900000000001E-05
(PID.TID 0000.0001) %MON vort_a_sd                    =   3.7085881243543E-06
(PID.TID 0000.0001) %MON vort_p_mean                  =   7.7363265306123E-05
(PID.TID 0000.0001) %MON vort_p_sd                    =   3.1157520383098E-05
(PID.TID 0000.0001) %MON surfExpan_theta_mean         =   4.9861082011907E-13
(PID.TID 0000.0001) %MON surfExpan_salt_mean          =  -1.6472151836474E-16
(PID.TID 0000.0001) // =======================================================
(PID.TID 0000.0001) // End MONITOR dynamic field statistics
(PID.TID 0000.0001) // =======================================================
 cg2d: Sum(rhs),rhsMax =  -3.27301011814052E-13  8.04017840242306E-04
(PID.TID 0000.0001)                    cg2d_init_res =    1.22552032032157E-01
(PID.TID 0000.0001)                       cg2d_iters =    78
(PID.TID 0000.0001)                         cg2d_res =    7.60624714841768E-12
(PID.TID 0000.0001) // =======================================================
(PID.TID 0000.0001) // Begin MONITOR dynamic field statistics
(PID.TID 0000.0001) // =======================================================
(PID.TID 0000.0001) %MON time_tsnumber                =                    37
(PID.TID 0000.0001) %MON time_secondsf                =   4.4400000000000E+04
(PID.TID 0000.0001) %MON dynstat_eta_max              =   3.9640112841750E-04
(PID.TID 0000.0001) %MON dynstat_eta_min              =  -4.1910365164549E-04
(PID.TID 0000.0001) %MON dynstat_eta_mean             =   8.2509275330933E-17
(PID.TID 0000.0001) %MON dynstat_eta_sd               =   3.7354319468673E-04
(PID.TID 0000.0001) %MON dynstat_eta_del2             =   3.9470593534160E-06
(PID.TID 0000.0001) %MON dynstat_uvel_max             =   4.0215130338627E-02
(PID.TID 0000.0001) %MON dynstat_uvel_min             =  -4.0216173609765E-02
(PID.TID 0000.0001) %MON dynstat_uvel_mean            =  -9.1457121148356E-07
(PID.TID 0000.0001) %MON dynstat_uvel_sd              =   9.5769331003025E-03
(PID.TID 0000.0001) %MON dynstat_uvel_del2            =   3.3220059867009E-04
(PID.TID 0000.0001) %MON dynstat_vvel_max             =   4.4496093328578E-03
(PID.TID 0000.0001) %MON dynstat_vvel_min             =  -4.4478577584363E-03
(PID.TID 0000.0001) %MON dynstat_vvel_mean            =   1.0125503501023E-10
(PID.TID 0000.0001) %MON dynstat_vvel_sd              =   8.8721858340312E-04
(PID.TID 0000.0001) %MON dynstat_vvel_del2            =   1.2828558891070E-04
(PID.TID 0000.0001) %MON dynstat_wvel_max             =   2.0645817458752E-04
(PID.TID 0000.0001) %MON dynstat_wvel_min             =  -2.0619995167177E-04
(PID.TID 0000.0001) %MON dynstat_wvel_mean            =  -4.1496897104197E-22
(PID.TID 0000.0001) %MON dynstat_wvel_sd              =   4.7982296914098E-05
(PID.TID 0000.0001) %MON dynstat_wvel_del2            =   1.0292264775361E-05
(PID.TID 0000.0001) %MON dynstat_theta_max            =   1.7020391872703E+01
(PID.TID 0000.0001) %MON dynstat_theta_min            =   1.6979608188987E+01
(PID.TID 0000.0001) %MON dynstat_theta_mean           =   1.6999999916810E+01
(PID.TID 0000.0001) %MON dynstat_theta_sd             =   1.8680347647918E-02
(PID.TID 0000.0001) %MON dynstat_theta_del2           =   1.9617877426802E-04
(PID.TID 0000.0001) %MON dynstat_salt_max             =   1.7020387109310E+01
(PID.TID 0000.0001) %MON dynstat_salt_min             =   1.6979612982853E+01
(PID.TID 0000.0001) %MON dynstat_salt_mean            =   1.7000000005832E+01
(PID.TID 0000.0001) %MON dynstat_salt_sd              =   1.8684450174059E-02
(PID.TID 0000.0001) %MON dynstat_salt_del2            =   1.9235426332929E-04
(PID.TID 0000.0001) %MON advcfl_uvel_max              =   4.8259408331718E-02
(PID.TID 0000.0001) %MON advcfl_vvel_max              =   5.3395311994294E-03
(PID.TID 0000.0001) %MON advcfl_wvel_max              =   4.9549961901005E-02
(PID.TID 0000.0001) %MON advcfl_W_hf_max              =   4.9549961901005E-02
(PID.TID 0000.0001) %MON pe_b_mean                    =   3.4220840612283E-09
(PID.TID 0000.0001) %MON ke_max                       =   8.1493534115518E-04
(PID.TID 0000.0001) %MON ke_mean                      =   4.6236659493129E-05
(PID.TID 0000.0001) %MON ke_vol                       =   2.5000000000000E+11
(PID.TID 0000.0001) %MON vort_r_min                   =  -1.3397704806702E-05
(PID.TID 0000.0001) %MON vort_r_max                   =   1.4840907956828E-05
(PID.TID 0000.0001) %MON vort_a_mean                  =   7.2899999999999E-05
(PID.TID 0000.0001) %MON vort_a_sd                    =   3.6093985774090E-06
(PID.TID 0000.0001) %MON vort_p_mean                  =   7.7363265306121E-05
(PID.TID 0000.0001) %MON vort_p_sd                    =   3.1145155731080E-05
(PID.TID 0000.0001) %MON surfExpan_theta_mean         =   3.3302850360756E-13
(PID.TID 0000.0001) %MON surfExpan_salt_mean          =  -1.9976554292784E-16
(PID.TID 0000.0001) // =======================================================
(PID.TID 0000.0001) // End MONITOR dynamic field statistics
(PID.TID 0000.0001) // =======================================================
 cg2d: Sum(rhs),rhsMax =  -4.58075743135777E-13  7.96738778563585E-04
(PID.TID 0000.0001)                    cg2d_init_res =    1.29664491202460E-01
(PID.TID 0000.0001)                       cg2d_iters =    81
(PID.TID 0000.0001)                         cg2d_res =    9.95543201784827E-12
(PID.TID 0000.0001) // =======================================================
(PID.TID 0000.0001) // Begin MONITOR dynamic field statistics
(PID.TID 0000.0001) // =======================================================
(PID.TID 0000.0001) %MON time_tsnumber                =                    38
(PID.TID 0000.0001) %MON time_secondsf                =   4.5600000000000E+04
(PID.TID 0000.0001) %MON dynstat_eta_max              =   3.9633884991141E-04
(PID.TID 0000.0001) %MON dynstat_eta_min              =  -4.1916597655124E-04
(PID.TID 0000.0001) %MON dynstat_eta_mean             =   1.0050647765769E-16
(PID.TID 0000.0001) %MON dynstat_eta_sd               =   3.7353007172897E-04
(PID.TID 0000.0001) %MON dynstat_eta_del2             =   3.9371680214583E-06
(PID.TID 0000.0001) %MON dynstat_uvel_max             =   3.9694342854819E-02
(PID.TID 0000.0001) %MON dynstat_uvel_min             =  -3.9695559342261E-02
(PID.TID 0000.0001) %MON dynstat_uvel_mean            =  -9.1456196000992E-07
(PID.TID 0000.0001) %MON dynstat_uvel_sd              =   9.4821850265924E-03
(PID.TID 0000.0001) %MON dynstat_uvel_del2            =   3.2409983656102E-04
(PID.TID 0000.0001) %MON dynstat_vvel_max             =   3.3573607500778E-03
(PID.TID 0000.0001) %MON dynstat_vvel_min             =  -3.3543261996098E-03
(PID.TID 0000.0001) %MON dynstat_vvel_mean            =   5.0588474657778E-11
(PID.TID 0000.0001) %MON dynstat_vvel_sd              =   9.0304803739228E-04
(PID.TID 0000.0001) %MON dynstat_vvel_del2            =   1.1987122879821E-04
(PID.TID 0000.0001) %MON dynstat_wvel_max             =   1.7190541466280E-04
(PID.TID 0000.0001) %MON dynstat_wvel_min             =  -1.7171832197442E-04
(PID.TID 0000.0001) %MON dynstat_wvel_mean            =   6.3140622794337E-22
(PID.TID 0000.0001) %MON dynstat_wvel_sd              =   4.2599976497256E-05
(PID.TID 0000.0001) %MON dynstat_wvel_del2            =   9.2429619509479E-06
(PID.TID 0000.0001) %MON dynstat_theta_max            =   1.7020391872700E+01
(PID.TID 0000.0001) %MON dynstat_theta_min            =   1.6979608188987E+01
(PID.TID 0000.0001) %MON dynstat_theta_mean           =   1.6999999916812E+01
(PID.TID 0000.0001) %MON dynstat_theta_sd             =   1.8680318809115E-02
(PID.TID 0000.0001) %MON dynstat_theta_del2           =   1.9615327110163E-04
(PID.TID 0000.0001) %MON dynstat_salt_max             =   1.7020387109310E+01
(PID.TID 0000.0001) %MON dynstat_salt_min             =   1.6979612982853E+01
(PID.TID 0000.0001) %MON dynstat_salt_mean            =   1.7000000005832E+01
(PID.TID 0000.0001) %MON dynstat_salt_sd              =   1.8684406708893E-02
(PID.TID 0000.0001) %MON dynstat_salt_del2            =   1.9258468046435E-04
(PID.TID 0000.0001) %MON advcfl_uvel_max              =   4.7634671210713E-02
(PID.TID 0000.0001) %MON advcfl_vvel_max              =   4.0288329000934E-03
(PID.TID 0000.0001) %MON advcfl_wvel_max              =   4.1257299519073E-02
(PID.TID 0000.0001) %MON advcfl_W_hf_max              =   4.1257299519073E-02
(PID.TID 0000.0001) %MON pe_b_mean                    =   3.4218436227654E-09
(PID.TID 0000.0001) %MON ke_max                       =   7.9025826019677E-04
(PID.TID 0000.0001) %MON ke_mean                      =   4.5347354821241E-05
(PID.TID 0000.0001) %MON ke_vol                       =   2.5000000000000E+11
(PID.TID 0000.0001) %MON vort_r_min                   =  -1.3104871858729E-05
(PID.TID 0000.0001) %MON vort_r_max                   =   1.4531618816778E-05
(PID.TID 0000.0001) %MON vort_a_mean                  =   7.2900000000000E-05
(PID.TID 0000.0001) %MON vort_a_sd                    =   3.5421643163892E-06
(PID.TID 0000.0001) %MON vort_p_mean                  =   7.7363265306123E-05
(PID.TID 0000.0001) %MON vort_p_sd                    =   3.1136962615173E-05
(PID.TID 0000.0001) %MON surfExpan_theta_mean         =  -2.7529362490588E-13
(PID.TID 0000.0001) %MON surfExpan_salt_mean          =  -7.2375832877274E-16
(PID.TID 0000.0001) // =======================================================
(PID.TID 0000.0001) // End MONITOR dynamic field statistics
(PID.TID 0000.0001) // =======================================================
 cg2d: Sum(rhs),rhsMax =  -4.93427293381948E-13  7.98843941779926E-04
(PID.TID 0000.0001)                    cg2d_init_res =    7.36397325856520E-02
(PID.TID 0000.0001)                       cg2d_iters =    78
(PID.TID 0000.0001)                         cg2d_res =    8.90509423692430E-12
(PID.TID 0000.0001) // =======================================================
(PID.TID 0000.0001) // Begin MONITOR dynamic field statistics
(PID.TID 0000.0001) // =======================================================
(PID.TID 0000.0001) %MON time_tsnumber                =                    39
(PID.TID 0000.0001) %MON time_secondsf                =   4.6800000000000E+04
(PID.TID 0000.0001) %MON dynstat_eta_max              =   3.9635494636338E-04
(PID.TID 0000.0001) %MON dynstat_eta_min              =  -4.1914994041353E-04
(PID.TID 0000.0001) %MON dynstat_eta_mean             =   9.1983123111095E-17
(PID.TID 0000.0001) %MON dynstat_eta_sd               =   3.7352330453770E-04
(PID.TID 0000.0001) %MON dynstat_eta_del2             =   3.9302719546983E-06
(PID.TID 0000.0001) %MON dynstat_uvel_max             =   3.9081859925100E-02
(PID.TID 0000.0001) %MON dynstat_uvel_min             =  -3.9083283820557E-02
(PID.TID 0000.0001) %MON dynstat_uvel_mean            =  -9.1452891485459E-07
(PID.TID 0000.0001) %MON dynstat_uvel_sd              =   9.3577531342730E-03
(PID.TID 0000.0001) %MON dynstat_uvel_del2            =   3.1506342867768E-04
(PID.TID 0000.0001) %MON dynstat_vvel_max             =   3.9608739484139E-03
(PID.TID 0000.0001) %MON dynstat_vvel_min             =  -3.9579072142272E-03
(PID.TID 0000.0001) %MON dynstat_vvel_mean            =   4.9057904252118E-12
(PID.TID 0000.0001) %MON dynstat_vvel_sd              =   1.0684337620846E-03
(PID.TID 0000.0001) %MON dynstat_vvel_del2            =   1.1246552598420E-04
(PID.TID 0000.0001) %MON dynstat_wvel_max             =   1.3930591699147E-04
(PID.TID 0000.0001) %MON dynstat_wvel_min             =  -1.3922528843005E-04
(PID.TID 0000.0001) %MON dynstat_wvel_mean            =   1.7883013115867E-22
(PID.TID 0000.0001) %MON dynstat_wvel_sd              =   3.8802747178103E-05
(PID.TID 0000.0001) %MON dynstat_wvel_del2            =   8.2364276694951E-06
(PID.TID 0000.0001) %MON dynstat_theta_max            =   1.7020391872687E+01
(PID.TID 0000.0001) %MON dynstat_theta_min            =   1.6979608188987E+01
(PID.TID 0000.0001) %MON dynstat_theta_mean           =   1.6999999916812E+01
(PID.TID 0000.0001) %MON dynstat_theta_sd             =   1.8680295369412E-02
(PID.TID 0000.0001) %MON dynstat_theta_del2           =   1.9615780459145E-04
(PID.TID 0000.0001) %MON dynstat_salt_max             =   1.7020387109310E+01
(PID.TID 0000.0001) %MON dynstat_salt_min             =   1.6979612982853E+01
(PID.TID 0000.0001) %MON dynstat_salt_mean            =   1.7000000005832E+01
(PID.TID 0000.0001) %MON dynstat_salt_sd              =   1.8684363393972E-02
(PID.TID 0000.0001) %MON dynstat_salt_del2            =   1.9282058984919E-04
(PID.TID 0000.0001) %MON advcfl_uvel_max              =   4.6899940584668E-02
(PID.TID 0000.0001) %MON advcfl_vvel_max              =   4.7530487380966E-03
(PID.TID 0000.0001) %MON advcfl_wvel_max              =   3.3433420077952E-02
(PID.TID 0000.0001) %MON advcfl_W_hf_max              =   3.3433420077952E-02
(PID.TID 0000.0001) %MON pe_b_mean                    =   3.4217196377785E-09
(PID.TID 0000.0001) %MON ke_max                       =   7.6442767677660E-04
(PID.TID 0000.0001) %MON ke_mean                      =   4.4331716617081E-05
(PID.TID 0000.0001) %MON ke_vol                       =   2.5000000000000E+11
(PID.TID 0000.0001) %MON vort_r_min                   =  -1.2777142501584E-05
(PID.TID 0000.0001) %MON vort_r_max                   =   1.4171764481349E-05
(PID.TID 0000.0001) %MON vort_a_mean                  =   7.2900000000000E-05
(PID.TID 0000.0001) %MON vort_a_sd                    =   3.4677245039397E-06
(PID.TID 0000.0001) %MON vort_p_mean                  =   7.7363265306122E-05
(PID.TID 0000.0001) %MON vort_p_sd                    =   3.1128068763008E-05
(PID.TID 0000.0001) %MON surfExpan_theta_mean         =  -1.4705932355159E-13
(PID.TID 0000.0001) %MON surfExpan_salt_mean          =  -3.1419254074422E-16
(PID.TID 0000.0001) // =======================================================
(PID.TID 0000.0001) // End MONITOR dynamic field statistics
(PID.TID 0000.0001) // =======================================================
 cg2d: Sum(rhs),rhsMax =  -4.38442088624563E-13  7.97321800390295E-04
(PID.TID 0000.0001)                    cg2d_init_res =    6.98849434766510E-02
(PID.TID 0000.0001)                       cg2d_iters =    78
(PID.TID 0000.0001)                         cg2d_res =    8.77659504271560E-12
(PID.TID 0000.0001) // =======================================================
(PID.TID 0000.0001) // Begin MONITOR dynamic field statistics
(PID.TID 0000.0001) // =======================================================
(PID.TID 0000.0001) %MON time_tsnumber                =                    40
(PID.TID 0000.0001) %MON time_secondsf                =   4.8000000000000E+04
(PID.TID 0000.0001) %MON dynstat_eta_max              =   3.9644233685785E-04
(PID.TID 0000.0001) %MON dynstat_eta_min              =  -4.1906261680630E-04
(PID.TID 0000.0001) %MON dynstat_eta_mean             =   9.0428371374296E-17
(PID.TID 0000.0001) %MON dynstat_eta_sd               =   3.7351036518182E-04
(PID.TID 0000.0001) %MON dynstat_eta_del2             =   3.9237510078749E-06
(PID.TID 0000.0001) %MON dynstat_uvel_max             =   3.8373453528215E-02
(PID.TID 0000.0001) %MON dynstat_uvel_min             =  -3.8375066224296E-02
(PID.TID 0000.0001) %MON dynstat_uvel_mean            =  -9.1451089284306E-07
(PID.TID 0000.0001) %MON dynstat_uvel_sd              =   9.2053065023608E-03
(PID.TID 0000.0001) %MON dynstat_uvel_del2            =   3.0586007753096E-04
(PID.TID 0000.0001) %MON dynstat_vvel_max             =   4.5669104919070E-03
(PID.TID 0000.0001) %MON dynstat_vvel_min             =  -4.5638873598597E-03
(PID.TID 0000.0001) %MON dynstat_vvel_mean            =  -3.8454630851978E-11
(PID.TID 0000.0001) %MON dynstat_vvel_sd              =   1.3182172241490E-03
(PID.TID 0000.0001) %MON dynstat_vvel_del2            =   1.0681413634027E-04
(PID.TID 0000.0001) %MON dynstat_wvel_max             =   1.1084182434742E-04
(PID.TID 0000.0001) %MON dynstat_wvel_min             =  -1.1081488921544E-04
(PID.TID 0000.0001) %MON dynstat_wvel_mean            =   1.3789932919355E-21
(PID.TID 0000.0001) %MON dynstat_wvel_sd              =   3.7068722992365E-05
(PID.TID 0000.0001) %MON dynstat_wvel_del2            =   7.4444178546821E-06
(PID.TID 0000.0001) %MON dynstat_theta_max            =   1.7020391872678E+01
(PID.TID 0000.0001) %MON dynstat_theta_min            =   1.6979608188987E+01
(PID.TID 0000.0001) %MON dynstat_theta_mean           =   1.6999999916814E+01
(PID.TID 0000.0001) %MON dynstat_theta_sd             =   1.8680270848193E-02
(PID.TID 0000.0001) %MON dynstat_theta_del2           =   1.9616028058843E-04
(PID.TID 0000.0001) %MON dynstat_salt_max             =   1.7020387109310E+01
(PID.TID 0000.0001) %MON dynstat_salt_min             =   1.6979612982853E+01
(PID.TID 0000.0001) %MON dynstat_salt_mean            =   1.7000000005832E+01
(PID.TID 0000.0001) %MON dynstat_salt_sd              =   1.8684320224467E-02
(PID.TID 0000.0001) %MON dynstat_salt_del2            =   1.9304648272014E-04
(PID.TID 0000.0001) %MON advcfl_uvel_max              =   4.6050079469155E-02
(PID.TID 0000.0001) %MON advcfl_vvel_max              =   5.4802925902884E-03
(PID.TID 0000.0001) %MON advcfl_wvel_max              =   2.6602037843380E-02
(PID.TID 0000.0001) %MON advcfl_W_hf_max              =   2.6602037843380E-02
(PID.TID 0000.0001) %MON pe_b_mean                    =   3.4214825758297E-09
(PID.TID 0000.0001) %MON ke_max                       =   7.3717506298578E-04
(PID.TID 0000.0001) %MON ke_mean                      =   4.3202928711388E-05
(PID.TID 0000.0001) %MON ke_vol                       =   2.5000000000000E+11
(PID.TID 0000.0001) %MON vort_r_min                   =  -1.2449195483794E-05
(PID.TID 0000.0001) %MON vort_r_max                   =   1.3808068924668E-05
(PID.TID 0000.0001) %MON vort_a_mean                  =   7.2900000000000E-05
(PID.TID 0000.0001) %MON vort_a_sd                    =   3.3879212776938E-06
(PID.TID 0000.0001) %MON vort_p_mean                  =   7.7363265306122E-05
(PID.TID 0000.0001) %MON vort_p_sd                    =   3.1118741229355E-05
(PID.TID 0000.0001) %MON surfExpan_theta_mean         =  -3.3335358986697E-13
(PID.TID 0000.0001) %MON surfExpan_salt_mean          =  -3.6975722286457E-16
(PID.TID 0000.0001) // =======================================================
(PID.TID 0000.0001) // End MONITOR dynamic field statistics
(PID.TID 0000.0001) // =======================================================
 cg2d: Sum(rhs),rhsMax =  -4.12527108827054E-13  7.95763419983361E-04
(PID.TID 0000.0001)                    cg2d_init_res =    8.58991867958361E-02
(PID.TID 0000.0001)                       cg2d_iters =    78
(PID.TID 0000.0001)                         cg2d_res =    6.93117964999464E-12
(PID.TID 0000.0001) // =======================================================
(PID.TID 0000.0001) // Begin MONITOR dynamic field statistics
(PID.TID 0000.0001) // =======================================================
(PID.TID 0000.0001) %MON time_tsnumber                =                    41
(PID.TID 0000.0001) %MON time_secondsf                =   4.9200000000000E+04
(PID.TID 0000.0001) %MON dynstat_eta_max              =   3.9660096868671E-04
(PID.TID 0000.0001) %MON dynstat_eta_min              =  -4.1890404331627E-04
(PID.TID 0000.0001) %MON dynstat_eta_mean             =   8.2931834280431E-17
(PID.TID 0000.0001) %MON dynstat_eta_sd               =   3.7349377732456E-04
(PID.TID 0000.0001) %MON dynstat_eta_del2             =   3.9167396993926E-06
(PID.TID 0000.0001) %MON dynstat_uvel_max             =   3.7578800368508E-02
(PID.TID 0000.0001) %MON dynstat_uvel_min             =  -3.7580671826521E-02
(PID.TID 0000.0001) %MON dynstat_uvel_mean            =  -9.1448380900145E-07
(PID.TID 0000.0001) %MON dynstat_uvel_sd              =   9.0261069929358E-03
(PID.TID 0000.0001) %MON dynstat_uvel_del2            =   2.9648250201054E-04
(PID.TID 0000.0001) %MON dynstat_vvel_max             =   5.1648146355848E-03
(PID.TID 0000.0001) %MON dynstat_vvel_min             =  -5.1618822258873E-03
(PID.TID 0000.0001) %MON dynstat_vvel_mean            =  -7.8095932158228E-11
(PID.TID 0000.0001) %MON dynstat_vvel_sd              =   1.6012451464810E-03
(PID.TID 0000.0001) %MON dynstat_vvel_del2            =   1.0283973817916E-04
(PID.TID 0000.0001) %MON dynstat_wvel_max             =   1.0883204384745E-04
(PID.TID 0000.0001) %MON dynstat_wvel_min             =  -1.0895738089935E-04
(PID.TID 0000.0001) %MON dynstat_wvel_mean            =   2.5002843987478E-22
(PID.TID 0000.0001) %MON dynstat_wvel_sd              =   3.7192098997644E-05
(PID.TID 0000.0001) %MON dynstat_wvel_del2            =   6.8048963303744E-06
(PID.TID 0000.0001) %MON dynstat_theta_max            =   1.7020391872668E+01
(PID.TID 0000.0001) %MON dynstat_theta_min            =   1.6979608188987E+01
(PID.TID 0000.0001) %MON dynstat_theta_mean           =   1.6999999916817E+01
(PID.TID 0000.0001) %MON dynstat_theta_sd             =   1.8680240683155E-02
(PID.TID 0000.0001) %MON dynstat_theta_del2           =   1.9615882909026E-04
(PID.TID 0000.0001) %MON dynstat_salt_max             =   1.7020387109310E+01
(PID.TID 0000.0001) %MON dynstat_salt_min             =   1.6979612982853E+01
(PID.TID 0000.0001) %MON dynstat_salt_mean            =   1.7000000005832E+01
(PID.TID 0000.0001) %MON dynstat_salt_sd              =   1.8684277262220E-02
(PID.TID 0000.0001) %MON dynstat_salt_del2            =   1.9327455212256E-04
(PID.TID 0000.0001) %MON advcfl_uvel_max              =   4.5096806191825E-02
(PID.TID 0000.0001) %MON advcfl_vvel_max              =   6.1977775627017E-03
(PID.TID 0000.0001) %MON advcfl_wvel_max              =   2.6149771415843E-02
(PID.TID 0000.0001) %MON advcfl_W_hf_max              =   2.6149771415843E-02
(PID.TID 0000.0001) %MON pe_b_mean                    =   3.4211786816967E-09
(PID.TID 0000.0001) %MON ke_max                       =   7.0877017174986E-04
(PID.TID 0000.0001) %MON ke_mean                      =   4.1966017431285E-05
(PID.TID 0000.0001) %MON ke_vol                       =   2.5000000000000E+11
(PID.TID 0000.0001) %MON vort_r_min                   =  -1.2113490495082E-05
(PID.TID 0000.0001) %MON vort_r_max                   =   1.3431851085586E-05
(PID.TID 0000.0001) %MON vort_a_mean                  =   7.2900000000000E-05
(PID.TID 0000.0001) %MON vort_a_sd                    =   3.3030809985248E-06
(PID.TID 0000.0001) %MON vort_p_mean                  =   7.7363265306123E-05
(PID.TID 0000.0001) %MON vort_p_sd                    =   3.1109060190544E-05
(PID.TID 0000.0001) %MON surfExpan_theta_mean         =  -4.5666220022755E-13
(PID.TID 0000.0001) %MON surfExpan_salt_mean          =  -3.7898757215432E-16
(PID.TID 0000.0001) // =======================================================
(PID.TID 0000.0001) // End MONITOR dynamic field statistics
(PID.TID 0000.0001) // =======================================================
 cg2d: Sum(rhs),rhsMax =  -3.54736259897820E-13  7.93809998348291E-04
(PID.TID 0000.0001)                    cg2d_init_res =    9.99770408517650E-02
(PID.TID 0000.0001)                       cg2d_iters =    77
(PID.TID 0000.0001)                         cg2d_res =    7.93542750295810E-12
(PID.TID 0000.0001) // =======================================================
(PID.TID 0000.0001) // Begin MONITOR dynamic field statistics
(PID.TID 0000.0001) // =======================================================
(PID.TID 0000.0001) %MON time_tsnumber                =                    42
(PID.TID 0000.0001) %MON time_secondsf                =   5.0400000000000E+04
(PID.TID 0000.0001) %MON dynstat_eta_max              =   3.9682260221572E-04
(PID.TID 0000.0001) %MON dynstat_eta_min              =  -4.1868247204152E-04
(PID.TID 0000.0001) %MON dynstat_eta_mean             =   9.8095109833385E-17
(PID.TID 0000.0001) %MON dynstat_eta_sd               =   3.7347451775983E-04
(PID.TID 0000.0001) %MON dynstat_eta_del2             =   3.9100009906122E-06
(PID.TID 0000.0001) %MON dynstat_uvel_max             =   3.6704701568313E-02
(PID.TID 0000.0001) %MON dynstat_uvel_min             =  -3.6706772218202E-02
(PID.TID 0000.0001) %MON dynstat_uvel_mean            =  -9.1445479723118E-07
(PID.TID 0000.0001) %MON dynstat_uvel_sd              =   8.8216637434891E-03
(PID.TID 0000.0001) %MON dynstat_uvel_del2            =   2.8687897558739E-04
(PID.TID 0000.0001) %MON dynstat_vvel_max             =   6.0308567990175E-03
(PID.TID 0000.0001) %MON dynstat_vvel_min             =  -6.0314654375980E-03
(PID.TID 0000.0001) %MON dynstat_vvel_mean            =  -1.1439711346665E-10
(PID.TID 0000.0001) %MON dynstat_vvel_sd              =   1.8912766562867E-03
(PID.TID 0000.0001) %MON dynstat_vvel_del2            =   1.0052588907057E-04
(PID.TID 0000.0001) %MON dynstat_wvel_max             =   1.2082508793783E-04
(PID.TID 0000.0001) %MON dynstat_wvel_min             =  -1.2096535010961E-04
(PID.TID 0000.0001) %MON dynstat_wvel_mean            =  -7.4284692967857E-22
(PID.TID 0000.0001) %MON dynstat_wvel_sd              =   3.8767237574538E-05
(PID.TID 0000.0001) %MON dynstat_wvel_del2            =   6.3018606973813E-06
(PID.TID 0000.0001) %MON dynstat_theta_max            =   1.7020391872657E+01
(PID.TID 0000.0001) %MON dynstat_theta_min            =   1.6979608188987E+01
(PID.TID 0000.0001) %MON dynstat_theta_mean           =   1.6999999916820E+01
(PID.TID 0000.0001) %MON dynstat_theta_sd             =   1.8680204721577E-02
(PID.TID 0000.0001) %MON dynstat_theta_del2           =   1.9615364589270E-04
(PID.TID 0000.0001) %MON dynstat_salt_max             =   1.7020387109310E+01
(PID.TID 0000.0001) %MON dynstat_salt_min             =   1.6979612982852E+01
(PID.TID 0000.0001) %MON dynstat_salt_mean            =   1.7000000005832E+01
(PID.TID 0000.0001) %MON dynstat_salt_sd              =   1.8684234592426E-02
(PID.TID 0000.0001) %MON dynstat_salt_del2            =   1.9350596454575E-04
(PID.TID 0000.0001) %MON advcfl_uvel_max              =   4.4048126661843E-02
(PID.TID 0000.0001) %MON advcfl_vvel_max              =   7.2377585251176E-03
(PID.TID 0000.0001) %MON advcfl_wvel_max              =   2.9031684026306E-02
(PID.TID 0000.0001) %MON advcfl_W_hf_max              =   2.9031684026306E-02
(PID.TID 0000.0001) %MON pe_b_mean                    =   3.4208258580759E-09
(PID.TID 0000.0001) %MON ke_max                       =   6.7935144063243E-04
(PID.TID 0000.0001) %MON ke_mean                      =   4.0627801167204E-05
(PID.TID 0000.0001) %MON ke_vol                       =   2.5000000000000E+11
(PID.TID 0000.0001) %MON vort_r_min                   =  -1.1772974102513E-05
(PID.TID 0000.0001) %MON vort_r_max                   =   1.3046249737996E-05
(PID.TID 0000.0001) %MON vort_a_mean                  =   7.2900000000000E-05
(PID.TID 0000.0001) %MON vort_a_sd                    =   3.2137532975574E-06
(PID.TID 0000.0001) %MON vort_p_mean                  =   7.7363265306123E-05
(PID.TID 0000.0001) %MON vort_p_sd                    =   3.1099129331488E-05
(PID.TID 0000.0001) %MON surfExpan_theta_mean         =  -5.5952821251294E-13
(PID.TID 0000.0001) %MON surfExpan_salt_mean          =  -3.6403619856765E-16
(PID.TID 0000.0001) // =======================================================
(PID.TID 0000.0001) // End MONITOR dynamic field statistics
(PID.TID 0000.0001) // =======================================================
 cg2d: Sum(rhs),rhsMax =  -5.23733725658893E-13  7.91730097490595E-04
(PID.TID 0000.0001)                    cg2d_init_res =    1.12133520333912E-01
(PID.TID 0000.0001)                       cg2d_iters =    76
(PID.TID 0000.0001)                         cg2d_res =    7.56218204168220E-12
(PID.TID 0000.0001) // =======================================================
(PID.TID 0000.0001) // Begin MONITOR dynamic field statistics
(PID.TID 0000.0001) // =======================================================
(PID.TID 0000.0001) %MON time_tsnumber                =                    43
(PID.TID 0000.0001) %MON time_secondsf                =   5.1600000000000E+04
(PID.TID 0000.0001) %MON dynstat_eta_max              =   3.9709907555435E-04
(PID.TID 0000.0001) %MON dynstat_eta_min              =  -4.1840605809912E-04
(PID.TID 0000.0001) %MON dynstat_eta_mean             =   1.0602101523871E-16
(PID.TID 0000.0001) %MON dynstat_eta_sd               =   3.7345369596677E-04
(PID.TID 0000.0001) %MON dynstat_eta_del2             =   3.9034650323542E-06
(PID.TID 0000.0001) %MON dynstat_uvel_max             =   3.5758463340862E-02
(PID.TID 0000.0001) %MON dynstat_uvel_min             =  -3.5760697487916E-02
(PID.TID 0000.0001) %MON dynstat_uvel_mean            =  -9.1442443258323E-07
(PID.TID 0000.0001) %MON dynstat_uvel_sd              =   8.5936465763104E-03
(PID.TID 0000.0001) %MON dynstat_uvel_del2            =   2.7709117797727E-04
(PID.TID 0000.0001) %MON dynstat_vvel_max             =   6.9243363688086E-03
(PID.TID 0000.0001) %MON dynstat_vvel_min             =  -6.9246952952697E-03
(PID.TID 0000.0001) %MON dynstat_vvel_mean            =  -1.4732913682271E-10
(PID.TID 0000.0001) %MON dynstat_vvel_sd              =   2.1748749667120E-03
(PID.TID 0000.0001) %MON dynstat_vvel_del2            =   9.9421516226939E-05
(PID.TID 0000.0001) %MON dynstat_wvel_max             =   1.3231806188109E-04
(PID.TID 0000.0001) %MON dynstat_wvel_min             =  -1.3246894198147E-04
(PID.TID 0000.0001) %MON dynstat_wvel_mean            =  -1.7846880472752E-22
(PID.TID 0000.0001) %MON dynstat_wvel_sd              =   4.1292272368789E-05
(PID.TID 0000.0001) %MON dynstat_wvel_del2            =   5.9420574310681E-06
(PID.TID 0000.0001) %MON dynstat_theta_max            =   1.7020391872646E+01
(PID.TID 0000.0001) %MON dynstat_theta_min            =   1.6979608188987E+01
(PID.TID 0000.0001) %MON dynstat_theta_mean           =   1.6999999916824E+01
(PID.TID 0000.0001) %MON dynstat_theta_sd             =   1.8680163274842E-02
(PID.TID 0000.0001) %MON dynstat_theta_del2           =   1.9614473008687E-04
(PID.TID 0000.0001) %MON dynstat_salt_max             =   1.7020387109310E+01
(PID.TID 0000.0001) %MON dynstat_salt_min             =   1.6979612982852E+01
(PID.TID 0000.0001) %MON dynstat_salt_mean            =   1.7000000005831E+01
(PID.TID 0000.0001) %MON dynstat_salt_sd              =   1.8684192172914E-02
(PID.TID 0000.0001) %MON dynstat_salt_del2            =   1.9374104252514E-04
(PID.TID 0000.0001) %MON advcfl_uvel_max              =   4.2912836985499E-02
(PID.TID 0000.0001) %MON advcfl_vvel_max              =   8.3096343543237E-03
(PID.TID 0000.0001) %MON advcfl_wvel_max              =   3.1792546075554E-02
(PID.TID 0000.0001) %MON advcfl_W_hf_max              =   3.1792546075554E-02
(PID.TID 0000.0001) %MON pe_b_mean                    =   3.4204444358411E-09
(PID.TID 0000.0001) %MON ke_max                       =   6.4907424205655E-04
(PID.TID 0000.0001) %MON ke_mean                      =   3.9195820095350E-05
(PID.TID 0000.0001) %MON ke_vol                       =   2.5000000000000E+11
(PID.TID 0000.0001) %MON vort_r_min                   =  -1.1428570388472E-05
(PID.TID 0000.0001) %MON vort_r_max                   =   1.2652347923222E-05
(PID.TID 0000.0001) %MON vort_a_mean                  =   7.2900000000000E-05
(PID.TID 0000.0001) %MON vort_a_sd                    =   3.1204869169534E-06
(PID.TID 0000.0001) %MON vort_p_mean                  =   7.7363265306123E-05
(PID.TID 0000.0001) %MON vort_p_sd                    =   3.1089047901983E-05
(PID.TID 0000.0001) %MON surfExpan_theta_mean         =  -6.3864547948341E-13
(PID.TID 0000.0001) %MON surfExpan_salt_mean          =  -3.5658313629399E-16
(PID.TID 0000.0001) // =======================================================
(PID.TID 0000.0001) // End MONITOR dynamic field statistics
(PID.TID 0000.0001) // =======================================================
 cg2d: Sum(rhs),rhsMax =  -6.54446711666895E-13  7.89643757671490E-04
(PID.TID 0000.0001)                    cg2d_init_res =    1.21767546769843E-01
(PID.TID 0000.0001)                       cg2d_iters =    75
(PID.TID 0000.0001)                         cg2d_res =    9.19183276539491E-12
(PID.TID 0000.0001) // =======================================================
(PID.TID 0000.0001) // Begin MONITOR dynamic field statistics
(PID.TID 0000.0001) // =======================================================
(PID.TID 0000.0001) %MON time_tsnumber                =                    44
(PID.TID 0000.0001) %MON time_secondsf                =   5.2800000000000E+04
(PID.TID 0000.0001) %MON dynstat_eta_max              =   3.9742185581090E-04
(PID.TID 0000.0001) %MON dynstat_eta_min              =  -4.1808333455804E-04
(PID.TID 0000.0001) %MON dynstat_eta_mean             =   8.7641593443100E-17
(PID.TID 0000.0001) %MON dynstat_eta_sd               =   3.7343235842565E-04
(PID.TID 0000.0001) %MON dynstat_eta_del2             =   3.8972682939855E-06
(PID.TID 0000.0001) %MON dynstat_uvel_max             =   3.4747523582422E-02
(PID.TID 0000.0001) %MON dynstat_uvel_min             =  -3.4749874378539E-02
(PID.TID 0000.0001) %MON dynstat_uvel_mean            =  -9.1439373438077E-07
(PID.TID 0000.0001) %MON dynstat_uvel_sd              =   8.3438958687062E-03
(PID.TID 0000.0001) %MON dynstat_uvel_del2            =   2.6717496511930E-04
(PID.TID 0000.0001) %MON dynstat_vvel_max             =   7.7496768564620E-03
(PID.TID 0000.0001) %MON dynstat_vvel_min             =  -7.7497854911679E-03
(PID.TID 0000.0001) %MON dynstat_vvel_mean            =  -1.7672292213033E-10
(PID.TID 0000.0001) %MON dynstat_vvel_sd              =   2.4444510017450E-03
(PID.TID 0000.0001) %MON dynstat_vvel_del2            =   9.9088789430286E-05
(PID.TID 0000.0001) %MON dynstat_wvel_max             =   1.4312693425589E-04
(PID.TID 0000.0001) %MON dynstat_wvel_min             =  -1.4329107375648E-04
(PID.TID 0000.0001) %MON dynstat_wvel_mean            =  -3.1243503484620E-21
(PID.TID 0000.0001) %MON dynstat_wvel_sd              =   4.4320833809454E-05
(PID.TID 0000.0001) %MON dynstat_wvel_del2            =   5.7134318905193E-06
(PID.TID 0000.0001) %MON dynstat_theta_max            =   1.7020391872637E+01
(PID.TID 0000.0001) %MON dynstat_theta_min            =   1.6979608188987E+01
(PID.TID 0000.0001) %MON dynstat_theta_mean           =   1.6999999916829E+01
(PID.TID 0000.0001) %MON dynstat_theta_sd             =   1.8680116652182E-02
(PID.TID 0000.0001) %MON dynstat_theta_del2           =   1.9613189537028E-04
(PID.TID 0000.0001) %MON dynstat_salt_max             =   1.7020387109310E+01
(PID.TID 0000.0001) %MON dynstat_salt_min             =   1.6979612982852E+01
(PID.TID 0000.0001) %MON dynstat_salt_mean            =   1.7000000005832E+01
(PID.TID 0000.0001) %MON dynstat_salt_sd              =   1.8684150095822E-02
(PID.TID 0000.0001) %MON dynstat_salt_del2            =   1.9399433853030E-04
(PID.TID 0000.0001) %MON advcfl_uvel_max              =   4.1699849254247E-02
(PID.TID 0000.0001) %MON advcfl_vvel_max              =   9.2997425894015E-03
(PID.TID 0000.0001) %MON advcfl_wvel_max              =   3.4389857701555E-02
(PID.TID 0000.0001) %MON advcfl_W_hf_max              =   3.4389857701555E-02
(PID.TID 0000.0001) %MON pe_b_mean                    =   3.4200535879818E-09
(PID.TID 0000.0001) %MON ke_max                       =   6.1809129672651E-04
(PID.TID 0000.0001) %MON ke_mean                      =   3.7678463087931E-05
(PID.TID 0000.0001) %MON ke_vol                       =   2.5000000000000E+11
(PID.TID 0000.0001) %MON vort_r_min                   =  -1.1081926464509E-05
(PID.TID 0000.0001) %MON vort_r_max                   =   1.2252095702418E-05
(PID.TID 0000.0001) %MON vort_a_mean                  =   7.2900000000000E-05
(PID.TID 0000.0001) %MON vort_a_sd                    =   3.0238702559709E-06
(PID.TID 0000.0001) %MON vort_p_mean                  =   7.7363265306123E-05
(PID.TID 0000.0001) %MON vort_p_sd                    =   3.1078914130599E-05
(PID.TID 0000.0001) %MON surfExpan_theta_mean         =  -6.9485186649732E-13
(PID.TID 0000.0001) %MON surfExpan_salt_mean          =  -3.4500405777617E-16
(PID.TID 0000.0001) // =======================================================
(PID.TID 0000.0001) // End MONITOR dynamic field statistics
(PID.TID 0000.0001) // =======================================================
 cg2d: Sum(rhs),rhsMax =  -3.59644172082119E-13  7.87661632791851E-04
(PID.TID 0000.0001)                    cg2d_init_res =    1.28818112482051E-01
(PID.TID 0000.0001)                       cg2d_iters =    76
(PID.TID 0000.0001)                         cg2d_res =    8.39822242121791E-12
(PID.TID 0000.0001) // =======================================================
(PID.TID 0000.0001) // Begin MONITOR dynamic field statistics
(PID.TID 0000.0001) // =======================================================
(PID.TID 0000.0001) %MON time_tsnumber                =                    45
(PID.TID 0000.0001) %MON time_secondsf                =   5.4000000000000E+04
(PID.TID 0000.0001) %MON dynstat_eta_max              =   3.9778190485097E-04
(PID.TID 0000.0001) %MON dynstat_eta_min              =  -4.1772333906942E-04
(PID.TID 0000.0001) %MON dynstat_eta_mean             =   7.0099207264418E-17
(PID.TID 0000.0001) %MON dynstat_eta_sd               =   3.7341147938206E-04
(PID.TID 0000.0001) %MON dynstat_eta_del2             =   3.8914794855076E-06
(PID.TID 0000.0001) %MON dynstat_uvel_max             =   3.3679483959581E-02
(PID.TID 0000.0001) %MON dynstat_uvel_min             =  -3.3681912462855E-02
(PID.TID 0000.0001) %MON dynstat_uvel_mean            =  -9.1436359918498E-07
(PID.TID 0000.0001) %MON dynstat_uvel_sd              =   8.0744059587835E-03
(PID.TID 0000.0001) %MON dynstat_uvel_del2            =   2.5727551040466E-04
(PID.TID 0000.0001) %MON dynstat_vvel_max             =   8.5017817319207E-03
(PID.TID 0000.0001) %MON dynstat_vvel_min             =  -8.5016538583257E-03
(PID.TID 0000.0001) %MON dynstat_vvel_mean            =  -2.0227141782489E-10
(PID.TID 0000.0001) %MON dynstat_vvel_sd              =   2.6952181300641E-03
(PID.TID 0000.0001) %MON dynstat_vvel_del2            =   9.9368174755968E-05
(PID.TID 0000.0001) %MON dynstat_wvel_max             =   1.5309441122706E-04
(PID.TID 0000.0001) %MON dynstat_wvel_min             =  -1.5328733398821E-04
(PID.TID 0000.0001) %MON dynstat_wvel_mean            =  -1.2489998038816E-21
(PID.TID 0000.0001) %MON dynstat_wvel_sd              =   4.7517210825535E-05
(PID.TID 0000.0001) %MON dynstat_wvel_del2            =   5.5858576512501E-06
(PID.TID 0000.0001) %MON dynstat_theta_max            =   1.7020391872628E+01
(PID.TID 0000.0001) %MON dynstat_theta_min            =   1.6979608188987E+01
(PID.TID 0000.0001) %MON dynstat_theta_mean           =   1.6999999916833E+01
(PID.TID 0000.0001) %MON dynstat_theta_sd             =   1.8680065216260E-02
(PID.TID 0000.0001) %MON dynstat_theta_del2           =   1.9611480590474E-04
(PID.TID 0000.0001) %MON dynstat_salt_max             =   1.7020387109310E+01
(PID.TID 0000.0001) %MON dynstat_salt_min             =   1.6979612982852E+01
(PID.TID 0000.0001) %MON dynstat_salt_mean            =   1.7000000005831E+01
(PID.TID 0000.0001) %MON dynstat_salt_sd              =   1.8684107002601E-02
(PID.TID 0000.0001) %MON dynstat_salt_del2            =   1.9427066758494E-04
(PID.TID 0000.0001) %MON advcfl_uvel_max              =   4.0418294955426E-02
(PID.TID 0000.0001) %MON advcfl_vvel_max              =   1.0202138078305E-02
(PID.TID 0000.0001) %MON advcfl_wvel_max              =   3.6788960157170E-02
(PID.TID 0000.0001) %MON advcfl_W_hf_max              =   3.6788960157170E-02
(PID.TID 0000.0001) %MON pe_b_mean                    =   3.4196711602137E-09
(PID.TID 0000.0001) %MON ke_max                       =   5.8655739264319E-04
(PID.TID 0000.0001) %MON ke_mean                      =   3.6084832580591E-05
(PID.TID 0000.0001) %MON ke_vol                       =   2.5000000000000E+11
(PID.TID 0000.0001) %MON vort_r_min                   =  -1.0734686332252E-05
(PID.TID 0000.0001) %MON vort_r_max                   =   1.1847408310197E-05
(PID.TID 0000.0001) %MON vort_a_mean                  =   7.2900000000000E-05
(PID.TID 0000.0001) %MON vort_a_sd                    =   2.9245166844102E-06
(PID.TID 0000.0001) %MON vort_p_mean                  =   7.7363265306122E-05
(PID.TID 0000.0001) %MON vort_p_sd                    =   3.1068822397716E-05
(PID.TID 0000.0001) %MON surfExpan_theta_mean         =  -7.2848872339846E-13
(PID.TID 0000.0001) %MON surfExpan_salt_mean          =  -3.3893795710459E-16
(PID.TID 0000.0001) // =======================================================
(PID.TID 0000.0001) // End MONITOR dynamic field statistics
(PID.TID 0000.0001) // =======================================================
 cg2d: Sum(rhs),rhsMax =  -4.25809886482609E-13  7.85856059488886E-04
(PID.TID 0000.0001)                    cg2d_init_res =    1.33447327580064E-01
(PID.TID 0000.0001)                       cg2d_iters =    76
(PID.TID 0000.0001)                         cg2d_res =    9.10773607837587E-12
(PID.TID 0000.0001) // =======================================================
(PID.TID 0000.0001) // Begin MONITOR dynamic field statistics
(PID.TID 0000.0001) // =======================================================
(PID.TID 0000.0001) %MON time_tsnumber                =                    46
(PID.TID 0000.0001) %MON time_secondsf                =   5.5200000000000E+04
(PID.TID 0000.0001) %MON dynstat_eta_max              =   3.9816999415634E-04
(PID.TID 0000.0001) %MON dynstat_eta_min              =  -4.1733529907247E-04
(PID.TID 0000.0001) %MON dynstat_eta_mean             =   8.1924842760261E-17
(PID.TID 0000.0001) %MON dynstat_eta_sd               =   3.7339190015555E-04
(PID.TID 0000.0001) %MON dynstat_eta_del2             =   3.8861694639119E-06
(PID.TID 0000.0001) %MON dynstat_uvel_max             =   3.2562121103518E-02
(PID.TID 0000.0001) %MON dynstat_uvel_min             =  -3.2564595218642E-02
(PID.TID 0000.0001) %MON dynstat_uvel_mean            =  -9.1433485655812E-07
(PID.TID 0000.0001) %MON dynstat_uvel_sd              =   7.7873131111023E-03
(PID.TID 0000.0001) %MON dynstat_uvel_del2            =   2.4736839930990E-04
(PID.TID 0000.0001) %MON dynstat_vvel_max             =   9.1761556053974E-03
(PID.TID 0000.0001) %MON dynstat_vvel_min             =  -9.1758017435293E-03
(PID.TID 0000.0001) %MON dynstat_vvel_mean            =  -2.2380574277631E-10
(PID.TID 0000.0001) %MON dynstat_vvel_sd              =   2.9238735561110E-03
(PID.TID 0000.0001) %MON dynstat_vvel_del2            =   1.0001683836057E-04
(PID.TID 0000.0001) %MON dynstat_wvel_max             =   1.6208807261325E-04
(PID.TID 0000.0001) %MON dynstat_wvel_min             =  -1.6230405746975E-04
(PID.TID 0000.0001) %MON dynstat_wvel_mean            =   1.9319822241745E-22
(PID.TID 0000.0001) %MON dynstat_wvel_sd              =   5.0649371911816E-05
(PID.TID 0000.0001) %MON dynstat_wvel_del2            =   5.5322220302325E-06
(PID.TID 0000.0001) %MON dynstat_theta_max            =   1.7020391872620E+01
(PID.TID 0000.0001) %MON dynstat_theta_min            =   1.6979608188987E+01
(PID.TID 0000.0001) %MON dynstat_theta_mean           =   1.6999999916837E+01
(PID.TID 0000.0001) %MON dynstat_theta_sd             =   1.8680009385064E-02
(PID.TID 0000.0001) %MON dynstat_theta_del2           =   1.9609305146970E-04
(PID.TID 0000.0001) %MON dynstat_salt_max             =   1.7020387109310E+01
(PID.TID 0000.0001) %MON dynstat_salt_min             =   1.6979612982852E+01
(PID.TID 0000.0001) %MON dynstat_salt_mean            =   1.7000000005832E+01
(PID.TID 0000.0001) %MON dynstat_salt_sd              =   1.8684062649484E-02
(PID.TID 0000.0001) %MON dynstat_salt_del2            =   1.9457181179589E-04
(PID.TID 0000.0001) %MON advcfl_uvel_max              =   3.9077514262370E-02
(PID.TID 0000.0001) %MON advcfl_vvel_max              =   1.1011386726477E-02
(PID.TID 0000.0001) %MON advcfl_wvel_max              =   3.8952973792740E-02
(PID.TID 0000.0001) %MON advcfl_W_hf_max              =   3.8952973792740E-02
(PID.TID 0000.0001) %MON pe_b_mean                    =   3.4193125597710E-09
(PID.TID 0000.0001) %MON ke_max                       =   5.5462971201808E-04
(PID.TID 0000.0001) %MON ke_mean                      =   3.4424660717797E-05
(PID.TID 0000.0001) %MON ke_vol                       =   2.5000000000000E+11
(PID.TID 0000.0001) %MON vort_r_min                   =  -1.0388562416251E-05
(PID.TID 0000.0001) %MON vort_r_max                   =   1.1440328630186E-05
(PID.TID 0000.0001) %MON vort_a_mean                  =   7.2899999999999E-05
(PID.TID 0000.0001) %MON vort_a_sd                    =   2.8230617261360E-06
(PID.TID 0000.0001) %MON vort_p_mean                  =   7.7363265306122E-05
(PID.TID 0000.0001) %MON vort_p_sd                    =   3.1058861910186E-05
(PID.TID 0000.0001) %MON surfExpan_theta_mean         =  -7.4105875451335E-13
(PID.TID 0000.0001) %MON surfExpan_salt_mean          =  -3.2185777265794E-16
(PID.TID 0000.0001) // =======================================================
(PID.TID 0000.0001) // End MONITOR dynamic field statistics
(PID.TID 0000.0001) // =======================================================
 cg2d: Sum(rhs),rhsMax =  -5.01609875597914E-13  7.84282616102270E-04
(PID.TID 0000.0001)                    cg2d_init_res =    1.35709182009916E-01
(PID.TID 0000.0001)                       cg2d_iters =    77
(PID.TID 0000.0001)                         cg2d_res =    7.60710763440580E-12
(PID.TID 0000.0001) // =======================================================
(PID.TID 0000.0001) // Begin MONITOR dynamic field statistics
(PID.TID 0000.0001) // =======================================================
(PID.TID 0000.0001) %MON time_tsnumber                =                    47
(PID.TID 0000.0001) %MON time_secondsf                =   5.6400000000000E+04
(PID.TID 0000.0001) %MON dynstat_eta_max              =   3.9857679791297E-04
(PID.TID 0000.0001) %MON dynstat_eta_min              =  -4.1692853990587E-04
(PID.TID 0000.0001) %MON dynstat_eta_mean             =   8.5389228431376E-17
(PID.TID 0000.0001) %MON dynstat_eta_sd               =   3.7337432609921E-04
(PID.TID 0000.0001) %MON dynstat_eta_del2             =   3.8813557981993E-06
(PID.TID 0000.0001) %MON dynstat_uvel_max             =   3.1403362346716E-02
(PID.TID 0000.0001) %MON dynstat_uvel_min             =  -3.1405874524037E-02
(PID.TID 0000.0001) %MON dynstat_uvel_mean            =  -9.1430821399109E-07
(PID.TID 0000.0001) %MON dynstat_uvel_sd              =   7.4848820106421E-03
(PID.TID 0000.0001) %MON dynstat_uvel_del2            =   2.3748428484385E-04
(PID.TID 0000.0001) %MON dynstat_vvel_max             =   9.7689226276523E-03
(PID.TID 0000.0001) %MON dynstat_vvel_min             =  -9.7683488551396E-03
(PID.TID 0000.0001) %MON dynstat_vvel_mean            =  -2.4124954414774E-10
(PID.TID 0000.0001) %MON dynstat_vvel_sd              =   3.1279951339460E-03
(PID.TID 0000.0001) %MON dynstat_vvel_del2            =   1.0093191487442E-04
(PID.TID 0000.0001) %MON dynstat_wvel_max             =   1.7000011378571E-04
(PID.TID 0000.0001) %MON dynstat_wvel_min             =  -1.7023447980647E-04
(PID.TID 0000.0001) %MON dynstat_wvel_mean            =  -1.2771363156803E-21
(PID.TID 0000.0001) %MON dynstat_wvel_sd              =   5.3562858788592E-05
(PID.TID 0000.0001) %MON dynstat_wvel_del2            =   5.5289881970557E-06
(PID.TID 0000.0001) %MON dynstat_theta_max            =   1.7020391872612E+01
(PID.TID 0000.0001) %MON dynstat_theta_min            =   1.6979608188987E+01
(PID.TID 0000.0001) %MON dynstat_theta_mean           =   1.6999999916842E+01
(PID.TID 0000.0001) %MON dynstat_theta_sd             =   1.8679949609434E-02
(PID.TID 0000.0001) %MON dynstat_theta_del2           =   1.9606637116083E-04
(PID.TID 0000.0001) %MON dynstat_salt_max             =   1.7020387109310E+01
(PID.TID 0000.0001) %MON dynstat_salt_min             =   1.6979612982852E+01
(PID.TID 0000.0001) %MON dynstat_salt_mean            =   1.7000000005832E+01
(PID.TID 0000.0001) %MON dynstat_salt_sd              =   1.8684016680459E-02
(PID.TID 0000.0001) %MON dynstat_salt_del2            =   1.9487167997682E-04
(PID.TID 0000.0001) %MON advcfl_uvel_max              =   3.7687049428844E-02
(PID.TID 0000.0001) %MON advcfl_vvel_max              =   1.1722707153183E-02
(PID.TID 0000.0001) %MON advcfl_wvel_max              =   4.0856275153552E-02
(PID.TID 0000.0001) %MON advcfl_W_hf_max              =   4.0856275153552E-02
(PID.TID 0000.0001) %MON pe_b_mean                    =   3.4189907007408E-09
(PID.TID 0000.0001) %MON ke_max                       =   5.2246809169849E-04
(PID.TID 0000.0001) %MON ke_mean                      =   3.2708219482431E-05
(PID.TID 0000.0001) %MON ke_vol                       =   2.5000000000000E+11
(PID.TID 0000.0001) %MON vort_r_min                   =  -1.0045361925242E-05
(PID.TID 0000.0001) %MON vort_r_max                   =   1.1032883406208E-05
(PID.TID 0000.0001) %MON vort_a_mean                  =   7.2900000000000E-05
(PID.TID 0000.0001) %MON vort_a_sd                    =   2.7201585088637E-06
(PID.TID 0000.0001) %MON vort_p_mean                  =   7.7363265306123E-05
(PID.TID 0000.0001) %MON vort_p_sd                    =   3.1049115368241E-05
(PID.TID 0000.0001) %MON surfExpan_theta_mean         =  -7.3389727719461E-13
(PID.TID 0000.0001) %MON surfExpan_salt_mean          =  -2.4715778361880E-16
(PID.TID 0000.0001) // =======================================================
(PID.TID 0000.0001) // End MONITOR dynamic field statistics
(PID.TID 0000.0001) // =======================================================
 cg2d: Sum(rhs),rhsMax =  -5.28571489962631E-13  7.82968773674731E-04
(PID.TID 0000.0001)                    cg2d_init_res =    1.35887287258387E-01
(PID.TID 0000.0001)                       cg2d_iters =    77
(PID.TID 0000.0001)                         cg2d_res =    7.35556874952173E-12
(PID.TID 0000.0001) // =======================================================
(PID.TID 0000.0001) // Begin MONITOR dynamic field statistics
(PID.TID 0000.0001) // =======================================================
(PID.TID 0000.0001) %MON time_tsnumber                =                    48
(PID.TID 0000.0001) %MON time_secondsf                =   5.7600000000000E+04
(PID.TID 0000.0001) %MON dynstat_eta_max              =   3.9899321944490E-04
(PID.TID 0000.0001) %MON dynstat_eta_min              =  -4.1651215814785E-04
(PID.TID 0000.0001) %MON dynstat_eta_mean             =   9.3123590909072E-17
(PID.TID 0000.0001) %MON dynstat_eta_sd               =   3.7335927733946E-04
(PID.TID 0000.0001) %MON dynstat_eta_del2             =   3.8770516656078E-06
(PID.TID 0000.0001) %MON dynstat_uvel_max             =   3.0211264103356E-02
(PID.TID 0000.0001) %MON dynstat_uvel_min             =  -3.0213784732515E-02
(PID.TID 0000.0001) %MON dynstat_uvel_mean            =  -9.1428427218872E-07
(PID.TID 0000.0001) %MON dynstat_uvel_sd              =   7.1694919874915E-03
(PID.TID 0000.0001) %MON dynstat_uvel_del2            =   2.2768144777779E-04
(PID.TID 0000.0001) %MON dynstat_vvel_max             =   1.0276844985611E-02
(PID.TID 0000.0001) %MON dynstat_vvel_min             =  -1.0276056535150E-02
(PID.TID 0000.0001) %MON dynstat_vvel_mean            =  -2.5454514545354E-10
(PID.TID 0000.0001) %MON dynstat_vvel_sd              =   3.3057472803871E-03
(PID.TID 0000.0001) %MON dynstat_vvel_del2            =   1.0191333185246E-04
(PID.TID 0000.0001) %MON dynstat_wvel_max             =   1.7674394658156E-04
(PID.TID 0000.0001) %MON dynstat_wvel_min             =  -1.7699278206914E-04
(PID.TID 0000.0001) %MON dynstat_wvel_mean            =   2.1539233200437E-22
(PID.TID 0000.0001) %MON dynstat_wvel_sd              =   5.6156683701525E-05
(PID.TID 0000.0001) %MON dynstat_wvel_del2            =   5.5575607704704E-06
(PID.TID 0000.0001) %MON dynstat_theta_max            =   1.7020391872605E+01
(PID.TID 0000.0001) %MON dynstat_theta_min            =   1.6979608188987E+01
(PID.TID 0000.0001) %MON dynstat_theta_mean           =   1.6999999916846E+01
(PID.TID 0000.0001) %MON dynstat_theta_sd             =   1.8679886372324E-02
(PID.TID 0000.0001) %MON dynstat_theta_del2           =   1.9605884081224E-04
(PID.TID 0000.0001) %MON dynstat_salt_max             =   1.7020387109310E+01
(PID.TID 0000.0001) %MON dynstat_salt_min             =   1.6979612982852E+01
(PID.TID 0000.0001) %MON dynstat_salt_mean            =   1.7000000005832E+01
(PID.TID 0000.0001) %MON dynstat_salt_sd              =   1.8683970721773E-02
(PID.TID 0000.0001) %MON dynstat_salt_del2            =   1.9515575111220E-04
(PID.TID 0000.0001) %MON advcfl_uvel_max              =   3.6256541679017E-02
(PID.TID 0000.0001) %MON advcfl_vvel_max              =   1.2332213982733E-02
(PID.TID 0000.0001) %MON advcfl_wvel_max              =   4.2478267696594E-02
(PID.TID 0000.0001) %MON advcfl_W_hf_max              =   4.2478267696594E-02
(PID.TID 0000.0001) %MON pe_b_mean                    =   3.4187151031477E-09
(PID.TID 0000.0001) %MON ke_max                       =   4.9023483706213E-04
(PID.TID 0000.0001) %MON ke_mean                      =   3.0946231336568E-05
(PID.TID 0000.0001) %MON ke_vol                       =   2.5000000000000E+11
(PID.TID 0000.0001) %MON vort_r_min                   =  -9.7067345035551E-06
(PID.TID 0000.0001) %MON vort_r_max                   =   1.0627086088036E-05
(PID.TID 0000.0001) %MON vort_a_mean                  =   7.2899999999999E-05
(PID.TID 0000.0001) %MON vort_a_sd                    =   2.6164737660422E-06
(PID.TID 0000.0001) %MON vort_p_mean                  =   7.7363265306122E-05
(PID.TID 0000.0001) %MON vort_p_sd                    =   3.1039657893157E-05
(PID.TID 0000.0001) %MON surfExpan_theta_mean         =  -7.0960768355873E-13
(PID.TID 0000.0001) %MON surfExpan_salt_mean          =  -3.0474579014831E-16
(PID.TID 0000.0001) // =======================================================
(PID.TID 0000.0001) // End MONITOR dynamic field statistics
(PID.TID 0000.0001) // =======================================================
 cg2d: Sum(rhs),rhsMax =  -6.05068946335496E-13  7.81917236339360E-04
(PID.TID 0000.0001)                    cg2d_init_res =    1.34248538155394E-01
(PID.TID 0000.0001)                       cg2d_iters =    76
(PID.TID 0000.0001)                         cg2d_res =    8.57658554419192E-12
(PID.TID 0000.0001) // =======================================================
(PID.TID 0000.0001) // Begin MONITOR dynamic field statistics
(PID.TID 0000.0001) // =======================================================
(PID.TID 0000.0001) %MON time_tsnumber                =                    49
(PID.TID 0000.0001) %MON time_secondsf                =   5.8800000000000E+04
(PID.TID 0000.0001) %MON dynstat_eta_max              =   3.9941068517387E-04
(PID.TID 0000.0001) %MON dynstat_eta_min              =  -4.1609472624741E-04
(PID.TID 0000.0001) %MON dynstat_eta_mean             =   8.5260577681878E-17
(PID.TID 0000.0001) %MON dynstat_eta_sd               =   3.7334709719506E-04
(PID.TID 0000.0001) %MON dynstat_eta_del2             =   3.8732629926704E-06
(PID.TID 0000.0001) %MON dynstat_uvel_max             =   2.8993977956121E-02
(PID.TID 0000.0001) %MON dynstat_uvel_min             =  -2.8996479207193E-02
(PID.TID 0000.0001) %MON dynstat_uvel_mean            =  -9.1426346573562E-07
(PID.TID 0000.0001) %MON dynstat_uvel_sd              =   6.8436228195899E-03
(PID.TID 0000.0001) %MON dynstat_uvel_del2            =   2.1821530136826E-04
(PID.TID 0000.0001) %MON dynstat_vvel_max             =   1.0697335477336E-02
(PID.TID 0000.0001) %MON dynstat_vvel_min             =  -1.0696336789418E-02
(PID.TID 0000.0001) %MON dynstat_vvel_mean            =  -2.6378826965347E-10
(PID.TID 0000.0001) %MON dynstat_vvel_sd              =   3.4557301621607E-03
(PID.TID 0000.0001) %MON dynstat_vvel_del2            =   1.0290932880390E-04
(PID.TID 0000.0001) %MON dynstat_wvel_max             =   1.8225348747872E-04
(PID.TID 0000.0001) %MON dynstat_wvel_min             =  -1.8251368899978E-04
(PID.TID 0000.0001) %MON dynstat_wvel_mean            =  -2.4539868139409E-21
(PID.TID 0000.0001) %MON dynstat_wvel_sd              =   5.8366057870392E-05
(PID.TID 0000.0001) %MON dynstat_wvel_del2            =   5.6075525787121E-06
(PID.TID 0000.0001) %MON dynstat_theta_max            =   1.7020391872598E+01
(PID.TID 0000.0001) %MON dynstat_theta_min            =   1.6979608188987E+01
(PID.TID 0000.0001) %MON dynstat_theta_mean           =   1.6999999916850E+01
(PID.TID 0000.0001) %MON dynstat_theta_sd             =   1.8679820185050E-02
(PID.TID 0000.0001) %MON dynstat_theta_del2           =   1.9605816803952E-04
(PID.TID 0000.0001) %MON dynstat_salt_max             =   1.7020387109311E+01
(PID.TID 0000.0001) %MON dynstat_salt_min             =   1.6979612982852E+01
(PID.TID 0000.0001) %MON dynstat_salt_mean            =   1.7000000005832E+01
(PID.TID 0000.0001) %MON dynstat_salt_sd              =   1.8683925170864E-02
(PID.TID 0000.0001) %MON dynstat_salt_del2            =   1.9545869027672E-04
(PID.TID 0000.0001) %MON advcfl_uvel_max              =   3.4795775048632E-02
(PID.TID 0000.0001) %MON advcfl_vvel_max              =   1.2836802572803E-02
(PID.TID 0000.0001) %MON advcfl_wvel_max              =   4.3803285359948E-02
(PID.TID 0000.0001) %MON advcfl_W_hf_max              =   4.3803285359948E-02
(PID.TID 0000.0001) %MON pe_b_mean                    =   3.4184920484821E-09
(PID.TID 0000.0001) %MON ke_max                       =   4.5809422496891E-04
(PID.TID 0000.0001) %MON ke_mean                      =   2.9149781124105E-05
(PID.TID 0000.0001) %MON ke_vol                       =   2.5000000000000E+11
(PID.TID 0000.0001) %MON vort_r_min                   =  -9.3741716345010E-06
(PID.TID 0000.0001) %MON vort_r_max                   =   1.0224894721377E-05
(PID.TID 0000.0001) %MON vort_a_mean                  =   7.2900000000000E-05
(PID.TID 0000.0001) %MON vort_a_sd                    =   2.5126836991652E-06
(PID.TID 0000.0001) %MON vort_p_mean                  =   7.7363265306123E-05
(PID.TID 0000.0001) %MON vort_p_sd                    =   3.1030556161777E-05
(PID.TID 0000.0001) %MON surfExpan_theta_mean         =  -6.7083470443049E-13
(PID.TID 0000.0001) %MON surfExpan_salt_mean          =  -2.6038557003806E-16
(PID.TID 0000.0001) // =======================================================
(PID.TID 0000.0001) // End MONITOR dynamic field statistics
(PID.TID 0000.0001) // =======================================================
 cg2d: Sum(rhs),rhsMax =  -4.09043133565989E-13  7.80996613245634E-04
(PID.TID 0000.0001)                    cg2d_init_res =    1.31379743365418E-01
(PID.TID 0000.0001)                       cg2d_iters =    76
(PID.TID 0000.0001)                         cg2d_res =    7.76941307821358E-12
(PID.TID 0000.0001) // =======================================================
(PID.TID 0000.0001) // Begin MONITOR dynamic field statistics
(PID.TID 0000.0001) // =======================================================
(PID.TID 0000.0001) %MON time_tsnumber                =                    50
(PID.TID 0000.0001) %MON time_secondsf                =   6.0000000000000E+04
(PID.TID 0000.0001) %MON dynstat_eta_max              =   3.9982073000265E-04
(PID.TID 0000.0001) %MON dynstat_eta_min              =  -4.1568471026813E-04
(PID.TID 0000.0001) %MON dynstat_eta_mean             =   8.8707656273335E-17
(PID.TID 0000.0001) %MON dynstat_eta_sd               =   3.7333796679095E-04
(PID.TID 0000.0001) %MON dynstat_eta_del2             =   3.8699806168223E-06
(PID.TID 0000.0001) %MON dynstat_uvel_max             =   2.7759712925952E-02
(PID.TID 0000.0001) %MON dynstat_uvel_min             =  -2.7762169694519E-02
(PID.TID 0000.0001) %MON dynstat_uvel_mean            =  -9.1424609569521E-07
(PID.TID 0000.0001) %MON dynstat_uvel_sd              =   6.5098402398142E-03
(PID.TID 0000.0001) %MON dynstat_uvel_del2            =   2.0915526561193E-04
(PID.TID 0000.0001) %MON dynstat_vvel_max             =   1.1028404319366E-02
(PID.TID 0000.0001) %MON dynstat_vvel_min             =  -1.1027201213790E-02
(PID.TID 0000.0001) %MON dynstat_vvel_mean            =  -2.6911158898326E-10
(PID.TID 0000.0001) %MON dynstat_vvel_sd              =   3.5768961598778E-03
(PID.TID 0000.0001) %MON dynstat_vvel_del2            =   1.0377737211494E-04
(PID.TID 0000.0001) %MON dynstat_wvel_max             =   1.8648518027781E-04
(PID.TID 0000.0001) %MON dynstat_wvel_min             =  -1.8675450365168E-04
(PID.TID 0000.0001) %MON dynstat_wvel_mean            =   2.2354495826602E-21
(PID.TID 0000.0001) %MON dynstat_wvel_sd              =   6.0150883955157E-05
(PID.TID 0000.0001) %MON dynstat_wvel_del2            =   5.6697731923053E-06
(PID.TID 0000.0001) %MON dynstat_theta_max            =   1.7020391872592E+01
(PID.TID 0000.0001) %MON dynstat_theta_min            =   1.6979608188987E+01
(PID.TID 0000.0001) %MON dynstat_theta_mean           =   1.6999999916854E+01
(PID.TID 0000.0001) %MON dynstat_theta_sd             =   1.8679751583936E-02
(PID.TID 0000.0001) %MON dynstat_theta_del2           =   1.9605495008611E-04
(PID.TID 0000.0001) %MON dynstat_salt_max             =   1.7020387109311E+01
(PID.TID 0000.0001) %MON dynstat_salt_min             =   1.6979612982852E+01
(PID.TID 0000.0001) %MON dynstat_salt_mean            =   1.7000000005831E+01
(PID.TID 0000.0001) %MON dynstat_salt_sd              =   1.8683878003111E-02
(PID.TID 0000.0001) %MON dynstat_salt_del2            =   1.9578674049034E-04
(PID.TID 0000.0001) %MON advcfl_uvel_max              =   3.3314603633423E-02
(PID.TID 0000.0001) %MON advcfl_vvel_max              =   1.3234085183239E-02
(PID.TID 0000.0001) %MON advcfl_wvel_max              =   4.4821080876404E-02
(PID.TID 0000.0001) %MON advcfl_W_hf_max              =   4.4821080876404E-02
(PID.TID 0000.0001) %MON pe_b_mean                    =   3.4183248484024E-09
(PID.TID 0000.0001) %MON ke_max                       =   4.2621172447518E-04
(PID.TID 0000.0001) %MON ke_mean                      =   2.7330219738378E-05
(PID.TID 0000.0001) %MON ke_vol                       =   2.5000000000000E+11
(PID.TID 0000.0001) %MON vort_r_min                   =  -9.0491919028336E-06
(PID.TID 0000.0001) %MON vort_r_max                   =   9.8282033105029E-06
(PID.TID 0000.0001) %MON vort_a_mean                  =   7.2900000000000E-05
(PID.TID 0000.0001) %MON vort_a_sd                    =   2.4094696574194E-06
(PID.TID 0000.0001) %MON vort_p_mean                  =   7.7363265306123E-05
(PID.TID 0000.0001) %MON vort_p_sd                    =   3.1021867761361E-05
(PID.TID 0000.0001) %MON surfExpan_theta_mean         =  -6.2018874749657E-13
(PID.TID 0000.0001) %MON surfExpan_salt_mean          =  -2.8102719005778E-16
(PID.TID 0000.0001) // =======================================================
(PID.TID 0000.0001) // End MONITOR dynamic field statistics
(PID.TID 0000.0001) // =======================================================
 cg2d: Sum(rhs),rhsMax =  -4.35116406880681E-13  7.80230598563647E-04
(PID.TID 0000.0001)                    cg2d_init_res =    1.27056880262367E-01
(PID.TID 0000.0001)                       cg2d_iters =    76
(PID.TID 0000.0001)                         cg2d_res =    7.67893978836753E-12
(PID.TID 0000.0001) // =======================================================
(PID.TID 0000.0001) // Begin MONITOR dynamic field statistics
(PID.TID 0000.0001) // =======================================================
(PID.TID 0000.0001) %MON time_tsnumber                =                    51
(PID.TID 0000.0001) %MON time_secondsf                =   6.1200000000000E+04
(PID.TID 0000.0001) %MON dynstat_eta_max              =   4.0021631276677E-04
(PID.TID 0000.0001) %MON dynstat_eta_min              =  -4.1528915093962E-04
(PID.TID 0000.0001) %MON dynstat_eta_mean             =   9.2113796154591E-17
(PID.TID 0000.0001) %MON dynstat_eta_sd               =   3.7333189561363E-04
(PID.TID 0000.0001) %MON dynstat_eta_del2             =   3.8671981392189E-06
(PID.TID 0000.0001) %MON dynstat_uvel_max             =   2.6516748842834E-02
(PID.TID 0000.0001) %MON dynstat_uvel_min             =  -2.6519082883468E-02
(PID.TID 0000.0001) %MON dynstat_uvel_mean            =  -9.1423239425445E-07
(PID.TID 0000.0001) %MON dynstat_uvel_sd              =   6.1707813812900E-03
(PID.TID 0000.0001) %MON dynstat_uvel_del2            =   2.0044393096271E-04
(PID.TID 0000.0001) %MON dynstat_vvel_max             =   1.1268790742102E-02
(PID.TID 0000.0001) %MON dynstat_vvel_min             =  -1.1267458565337E-02
(PID.TID 0000.0001) %MON dynstat_vvel_mean            =  -2.7079610566739E-10
(PID.TID 0000.0001) %MON dynstat_vvel_sd              =   3.6685071139932E-03
(PID.TID 0000.0001) %MON dynstat_vvel_del2            =   1.0449952488440E-04
(PID.TID 0000.0001) %MON dynstat_wvel_max             =   1.8943515032383E-04
(PID.TID 0000.0001) %MON dynstat_wvel_min             =  -1.8972101555981E-04
(PID.TID 0000.0001) %MON dynstat_wvel_mean            =  -1.6046732240721E-21
(PID.TID 0000.0001) %MON dynstat_wvel_sd              =   6.1488827047696E-05
(PID.TID 0000.0001) %MON dynstat_wvel_del2            =   5.7366954452114E-06
(PID.TID 0000.0001) %MON dynstat_theta_max            =   1.7020391872587E+01
(PID.TID 0000.0001) %MON dynstat_theta_min            =   1.6979608188987E+01
(PID.TID 0000.0001) %MON dynstat_theta_mean           =   1.6999999916858E+01
(PID.TID 0000.0001) %MON dynstat_theta_sd             =   1.8679681105829E-02
(PID.TID 0000.0001) %MON dynstat_theta_del2           =   1.9604865583424E-04
(PID.TID 0000.0001) %MON dynstat_salt_max             =   1.7020387109311E+01
(PID.TID 0000.0001) %MON dynstat_salt_min             =   1.6979612982852E+01
(PID.TID 0000.0001) %MON dynstat_salt_mean            =   1.7000000005831E+01
(PID.TID 0000.0001) %MON dynstat_salt_sd              =   1.8683810724785E-02
(PID.TID 0000.0001) %MON dynstat_salt_del2            =   1.9613910357637E-04
(PID.TID 0000.0001) %MON advcfl_uvel_max              =   3.1822899460162E-02
(PID.TID 0000.0001) %MON advcfl_vvel_max              =   1.3522548890522E-02
(PID.TID 0000.0001) %MON advcfl_wvel_max              =   4.5533043734354E-02
(PID.TID 0000.0001) %MON advcfl_W_hf_max              =   4.5533043734354E-02
(PID.TID 0000.0001) %MON pe_b_mean                    =   3.4182136725276E-09
(PID.TID 0000.0001) %MON ke_max                       =   3.9475302162375E-04
(PID.TID 0000.0001) %MON ke_mean                      =   2.5499085179549E-05
(PID.TID 0000.0001) %MON ke_vol                       =   2.5000000000000E+11
(PID.TID 0000.0001) %MON vort_r_min                   =  -8.7332339155594E-06
(PID.TID 0000.0001) %MON vort_r_max                   =   9.4388232061781E-06
(PID.TID 0000.0001) %MON vort_a_mean                  =   7.2900000000001E-05
(PID.TID 0000.0001) %MON vort_a_sd                    =   2.3075134920889E-06
(PID.TID 0000.0001) %MON vort_p_mean                  =   7.7363265306123E-05
(PID.TID 0000.0001) %MON vort_p_sd                    =   3.1013640766272E-05
(PID.TID 0000.0001) %MON surfExpan_theta_mean         =  -5.6094090333524E-13
(PID.TID 0000.0001) %MON surfExpan_salt_mean          =  -2.1538488756749E-16
(PID.TID 0000.0001) // =======================================================
(PID.TID 0000.0001) // End MONITOR dynamic field statistics
(PID.TID 0000.0001) // =======================================================
 cg2d: Sum(rhs),rhsMax =  -6.08539911170491E-13  7.79660507823992E-04
(PID.TID 0000.0001)                    cg2d_init_res =    1.21716854239060E-01
(PID.TID 0000.0001)                       cg2d_iters =    76
(PID.TID 0000.0001)                         cg2d_res =    7.94424442601941E-12
(PID.TID 0000.0001) // =======================================================
(PID.TID 0000.0001) // Begin MONITOR dynamic field statistics
(PID.TID 0000.0001) // =======================================================
(PID.TID 0000.0001) %MON time_tsnumber                =                    52
(PID.TID 0000.0001) %MON time_secondsf                =   6.2400000000000E+04
(PID.TID 0000.0001) %MON dynstat_eta_max              =   4.0059082960961E-04
(PID.TID 0000.0001) %MON dynstat_eta_min              =  -4.1491465272530E-04
(PID.TID 0000.0001) %MON dynstat_eta_mean             =   7.8766351678805E-17
(PID.TID 0000.0001) %MON dynstat_eta_sd               =   3.7332876641030E-04
(PID.TID 0000.0001) %MON dynstat_eta_del2             =   3.8648693330649E-06
(PID.TID 0000.0001) %MON dynstat_uvel_max             =   2.5273252970672E-02
(PID.TID 0000.0001) %MON dynstat_uvel_min             =  -2.5275414011440E-02
(PID.TID 0000.0001) %MON dynstat_uvel_mean            =  -9.1422231259319E-07
(PID.TID 0000.0001) %MON dynstat_uvel_sd              =   5.8291398481645E-03
(PID.TID 0000.0001) %MON dynstat_uvel_del2            =   1.9215659540767E-04
(PID.TID 0000.0001) %MON dynstat_vvel_max             =   1.1417939083972E-02
(PID.TID 0000.0001) %MON dynstat_vvel_min             =  -1.1416527048648E-02
(PID.TID 0000.0001) %MON dynstat_vvel_mean            =  -2.6912405353898E-10
(PID.TID 0000.0001) %MON dynstat_vvel_sd              =   3.7301056779211E-03
(PID.TID 0000.0001) %MON dynstat_vvel_del2            =   1.0504344963851E-04
(PID.TID 0000.0001) %MON dynstat_wvel_max             =   1.9108048143683E-04
(PID.TID 0000.0001) %MON dynstat_wvel_min             =  -1.9137020937728E-04
(PID.TID 0000.0001) %MON dynstat_wvel_mean            =  -1.8394661836872E-21
(PID.TID 0000.0001) %MON dynstat_wvel_sd              =   6.2370596466519E-05
(PID.TID 0000.0001) %MON dynstat_wvel_del2            =   5.8041172480816E-06
(PID.TID 0000.0001) %MON dynstat_theta_max            =   1.7020391872582E+01
(PID.TID 0000.0001) %MON dynstat_theta_min            =   1.6979608188987E+01
(PID.TID 0000.0001) %MON dynstat_theta_mean           =   1.6999999916861E+01
(PID.TID 0000.0001) %MON dynstat_theta_sd             =   1.8679609293799E-02
(PID.TID 0000.0001) %MON dynstat_theta_del2           =   1.9603902647243E-04
(PID.TID 0000.0001) %MON dynstat_salt_max             =   1.7020387109311E+01
(PID.TID 0000.0001) %MON dynstat_salt_min             =   1.6979612982852E+01
(PID.TID 0000.0001) %MON dynstat_salt_mean            =   1.7000000005832E+01
(PID.TID 0000.0001) %MON dynstat_salt_sd              =   1.8683714847579E-02
(PID.TID 0000.0001) %MON dynstat_salt_del2            =   1.9691366605038E-04
(PID.TID 0000.0001) %MON advcfl_uvel_max              =   3.0330496813728E-02
(PID.TID 0000.0001) %MON advcfl_vvel_max              =   1.3701526900766E-02
(PID.TID 0000.0001) %MON advcfl_wvel_max              =   4.5928850250548E-02
(PID.TID 0000.0001) %MON advcfl_W_hf_max              =   4.5928850250548E-02
(PID.TID 0000.0001) %MON pe_b_mean                    =   3.4181563710170E-09
(PID.TID 0000.0001) %MON ke_max                       =   3.6388288217314E-04
(PID.TID 0000.0001) %MON ke_mean                      =   2.3668006519491E-05
(PID.TID 0000.0001) %MON ke_vol                       =   2.5000000000000E+11
(PID.TID 0000.0001) %MON vort_r_min                   =  -8.4276243038942E-06
(PID.TID 0000.0001) %MON vort_r_max                   =   9.0584831799357E-06
(PID.TID 0000.0001) %MON vort_a_mean                  =   7.2899999999999E-05
(PID.TID 0000.0001) %MON vort_a_sd                    =   2.2074921347763E-06
(PID.TID 0000.0001) %MON vort_p_mean                  =   7.7363265306122E-05
(PID.TID 0000.0001) %MON vort_p_sd                    =   3.1005913513957E-05
(PID.TID 0000.0001) %MON surfExpan_theta_mean         =  -4.9600409418665E-13
(PID.TID 0000.0001) %MON surfExpan_salt_mean          =  -3.2805072323044E-16
(PID.TID 0000.0001) // =======================================================
(PID.TID 0000.0001) // End MONITOR dynamic field statistics
(PID.TID 0000.0001) // =======================================================
 cg2d: Sum(rhs),rhsMax =  -5.17823414356022E-13  7.79268849999938E-04
(PID.TID 0000.0001)                    cg2d_init_res =    1.15768962098842E-01
(PID.TID 0000.0001)                       cg2d_iters =    79
(PID.TID 0000.0001)                         cg2d_res =    7.46840100321052E-12
(PID.TID 0000.0001) // =======================================================
(PID.TID 0000.0001) // Begin MONITOR dynamic field statistics
(PID.TID 0000.0001) // =======================================================
(PID.TID 0000.0001) %MON time_tsnumber                =                    53
(PID.TID 0000.0001) %MON time_secondsf                =   6.3600000000000E+04
(PID.TID 0000.0001) %MON dynstat_eta_max              =   4.0093786450819E-04
(PID.TID 0000.0001) %MON dynstat_eta_min              =  -4.1456763160135E-04
(PID.TID 0000.0001) %MON dynstat_eta_mean             =   7.6450021520569E-17
(PID.TID 0000.0001) %MON dynstat_eta_sd               =   3.7332834137773E-04
(PID.TID 0000.0001) %MON dynstat_eta_del2             =   3.8629574611126E-06
(PID.TID 0000.0001) %MON dynstat_uvel_max             =   2.4037297627673E-02
(PID.TID 0000.0001) %MON dynstat_uvel_min             =  -2.4039279111663E-02
(PID.TID 0000.0001) %MON dynstat_uvel_mean            =  -9.1421573035933E-07
(PID.TID 0000.0001) %MON dynstat_uvel_sd              =   5.4876507426012E-03
(PID.TID 0000.0001) %MON dynstat_uvel_del2            =   1.8436482307535E-04
(PID.TID 0000.0001) %MON dynstat_vvel_max             =   1.1475960419448E-02
(PID.TID 0000.0001) %MON dynstat_vvel_min             =  -1.1474470801448E-02
(PID.TID 0000.0001) %MON dynstat_vvel_mean            =  -2.6438511573961E-10
(PID.TID 0000.0001) %MON dynstat_vvel_sd              =   3.7615005673136E-03
(PID.TID 0000.0001) %MON dynstat_vvel_del2            =   1.0534462289890E-04
(PID.TID 0000.0001) %MON dynstat_wvel_max             =   1.9135845767514E-04
(PID.TID 0000.0001) %MON dynstat_wvel_min             =  -1.9165388086008E-04
(PID.TID 0000.0001) %MON dynstat_wvel_mean            =   1.3338854986287E-21
(PID.TID 0000.0001) %MON dynstat_wvel_sd              =   6.2797297335493E-05
(PID.TID 0000.0001) %MON dynstat_wvel_del2            =   5.8674652221675E-06
(PID.TID 0000.0001) %MON dynstat_theta_max            =   1.7020391872578E+01
(PID.TID 0000.0001) %MON dynstat_theta_min            =   1.6979608188987E+01
(PID.TID 0000.0001) %MON dynstat_theta_mean           =   1.6999999916863E+01
(PID.TID 0000.0001) %MON dynstat_theta_sd             =   1.8679536514262E-02
(PID.TID 0000.0001) %MON dynstat_theta_del2           =   1.9602608475244E-04
(PID.TID 0000.0001) %MON dynstat_salt_max             =   1.7020387109311E+01
(PID.TID 0000.0001) %MON dynstat_salt_min             =   1.6979612982852E+01
(PID.TID 0000.0001) %MON dynstat_salt_mean            =   1.7000000005832E+01
(PID.TID 0000.0001) %MON dynstat_salt_sd              =   1.8683506627239E-02
(PID.TID 0000.0001) %MON dynstat_salt_del2            =   1.9748850181566E-04
(PID.TID 0000.0001) %MON advcfl_uvel_max              =   2.8847134933995E-02
(PID.TID 0000.0001) %MON advcfl_vvel_max              =   1.3771152503338E-02
(PID.TID 0000.0001) %MON advcfl_wvel_max              =   4.5996931406419E-02
(PID.TID 0000.0001) %MON advcfl_W_hf_max              =   4.5996931406419E-02
(PID.TID 0000.0001) %MON pe_b_mean                    =   3.4181485879201E-09
(PID.TID 0000.0001) %MON ke_max                       =   3.3376393916510E-04
(PID.TID 0000.0001) %MON ke_mean                      =   2.1848621282873E-05
(PID.TID 0000.0001) %MON ke_vol                       =   2.5000000000000E+11
(PID.TID 0000.0001) %MON vort_r_min                   =  -8.1335332520638E-06
(PID.TID 0000.0001) %MON vort_r_max                   =   8.6888186277427E-06
(PID.TID 0000.0001) %MON vort_a_mean                  =   7.2900000000000E-05
(PID.TID 0000.0001) %MON vort_a_sd                    =   2.1100715688121E-06
(PID.TID 0000.0001) %MON vort_p_mean                  =   7.7363265306122E-05
(PID.TID 0000.0001) %MON vort_p_sd                    =   3.0998714605472E-05
(PID.TID 0000.0001) %MON surfExpan_theta_mean         =  -4.2850725626134E-13
(PID.TID 0000.0001) %MON surfExpan_salt_mean          =  -8.1187287476084E-16
(PID.TID 0000.0001) // =======================================================
(PID.TID 0000.0001) // End MONITOR dynamic field statistics
(PID.TID 0000.0001) // =======================================================
 cg2d: Sum(rhs),rhsMax =  -3.90962273406209E-13  7.78997318948274E-04
(PID.TID 0000.0001)                    cg2d_init_res =    1.10555373701927E-01
(PID.TID 0000.0001)                       cg2d_iters =    78
(PID.TID 0000.0001)                         cg2d_res =    8.74924580685503E-12
(PID.TID 0000.0001) // =======================================================
(PID.TID 0000.0001) // Begin MONITOR dynamic field statistics
(PID.TID 0000.0001) // =======================================================
(PID.TID 0000.0001) %MON time_tsnumber                =                    54
(PID.TID 0000.0001) %MON time_secondsf                =   6.4800000000000E+04
(PID.TID 0000.0001) %MON dynstat_eta_max              =   4.0124914858296E-04
(PID.TID 0000.0001) %MON dynstat_eta_min              =  -4.1425635617058E-04
(PID.TID 0000.0001) %MON dynstat_eta_mean             =   8.1198606837196E-17
(PID.TID 0000.0001) %MON dynstat_eta_sd               =   3.7333023784088E-04
(PID.TID 0000.0001) %MON dynstat_eta_del2             =   3.8614188594051E-06
(PID.TID 0000.0001) %MON dynstat_uvel_max             =   2.2816868943203E-02
(PID.TID 0000.0001) %MON dynstat_uvel_min             =  -2.2818666062558E-02
(PID.TID 0000.0001) %MON dynstat_uvel_mean            =  -9.1421236238277E-07
(PID.TID 0000.0001) %MON dynstat_uvel_sd              =   5.1490750077523E-03
(PID.TID 0000.0001) %MON dynstat_uvel_del2            =   1.7714476282797E-04
(PID.TID 0000.0001) %MON dynstat_vvel_max             =   1.1443650984072E-02
(PID.TID 0000.0001) %MON dynstat_vvel_min             =  -1.1442086271778E-02
(PID.TID 0000.0001) %MON dynstat_vvel_mean            =  -2.5635450029870E-10
(PID.TID 0000.0001) %MON dynstat_vvel_sd              =   3.7627572237165E-03
(PID.TID 0000.0001) %MON dynstat_vvel_del2            =   1.0541828907219E-04
(PID.TID 0000.0001) %MON dynstat_wvel_max             =   1.9026725334912E-04
(PID.TID 0000.0001) %MON dynstat_wvel_min             =  -1.9056755707002E-04
(PID.TID 0000.0001) %MON dynstat_wvel_mean            =  -8.1344104233609E-22
(PID.TID 0000.0001) %MON dynstat_wvel_sd              =   6.2779036985926E-05
(PID.TID 0000.0001) %MON dynstat_wvel_del2            =   5.9242292229819E-06
(PID.TID 0000.0001) %MON dynstat_theta_max            =   1.7020391872575E+01
(PID.TID 0000.0001) %MON dynstat_theta_min            =   1.6979608188987E+01
(PID.TID 0000.0001) %MON dynstat_theta_mean           =   1.6999999916866E+01
(PID.TID 0000.0001) %MON dynstat_theta_sd             =   1.8679463708331E-02
(PID.TID 0000.0001) %MON dynstat_theta_del2           =   1.9601009526805E-04
(PID.TID 0000.0001) %MON dynstat_salt_max             =   1.7020387109311E+01
(PID.TID 0000.0001) %MON dynstat_salt_min             =   1.6979612982851E+01
(PID.TID 0000.0001) %MON dynstat_salt_mean            =   1.7000000005832E+01
(PID.TID 0000.0001) %MON dynstat_salt_sd              =   1.8683399851957E-02
(PID.TID 0000.0001) %MON dynstat_salt_del2            =   1.9819073391811E-04
(PID.TID 0000.0001) %MON advcfl_uvel_max              =   2.7382399275069E-02
(PID.TID 0000.0001) %MON advcfl_vvel_max              =   1.3732381180886E-02
(PID.TID 0000.0001) %MON advcfl_wvel_max              =   4.5736213696804E-02
(PID.TID 0000.0001) %MON advcfl_W_hf_max              =   4.5736213696804E-02
(PID.TID 0000.0001) %MON pe_b_mean                    =   3.4181833155773E-09
(PID.TID 0000.0001) %MON ke_max                       =   3.0455543176908E-04
(PID.TID 0000.0001) %MON ke_mean                      =   2.0052491259445E-05
(PID.TID 0000.0001) %MON ke_vol                       =   2.5000000000000E+11
(PID.TID 0000.0001) %MON vort_r_min                   =  -7.8520393692264E-06
(PID.TID 0000.0001) %MON vort_r_max                   =   8.3313882942142E-06
(PID.TID 0000.0001) %MON vort_a_mean                  =   7.2900000000000E-05
(PID.TID 0000.0001) %MON vort_a_sd                    =   2.0158999829413E-06
(PID.TID 0000.0001) %MON vort_p_mean                  =   7.7363265306123E-05
(PID.TID 0000.0001) %MON vort_p_sd                    =   3.0992063119483E-05
(PID.TID 0000.0001) %MON surfExpan_theta_mean         =  -3.6319712735117E-13
(PID.TID 0000.0001) %MON surfExpan_salt_mean          =   2.0689501078951E-16
(PID.TID 0000.0001) // =======================================================
(PID.TID 0000.0001) // End MONITOR dynamic field statistics
(PID.TID 0000.0001) // =======================================================
 cg2d: Sum(rhs),rhsMax =  -4.82041761108026E-13  7.78842283682092E-04
(PID.TID 0000.0001)                    cg2d_init_res =    1.02588596018197E-01
(PID.TID 0000.0001)                       cg2d_iters =    77
(PID.TID 0000.0001)                         cg2d_res =    9.31617170650846E-12
(PID.TID 0000.0001) // =======================================================
(PID.TID 0000.0001) // Begin MONITOR dynamic field statistics
(PID.TID 0000.0001) // =======================================================
(PID.TID 0000.0001) %MON time_tsnumber                =                    55
(PID.TID 0000.0001) %MON time_secondsf                =   6.6000000000000E+04
(PID.TID 0000.0001) %MON dynstat_eta_max              =   4.0152928189284E-04
(PID.TID 0000.0001) %MON dynstat_eta_min              =  -4.1397623028979E-04
(PID.TID 0000.0001) %MON dynstat_eta_mean             =   7.8926160752557E-17
(PID.TID 0000.0001) %MON dynstat_eta_sd               =   3.7333423658865E-04
(PID.TID 0000.0001) %MON dynstat_eta_del2             =   3.8602043741405E-06
(PID.TID 0000.0001) %MON dynstat_uvel_max             =   2.1619774496348E-02
(PID.TID 0000.0001) %MON dynstat_uvel_min             =  -2.1621383838995E-02
(PID.TID 0000.0001) %MON dynstat_uvel_mean            =  -9.1421174074756E-07
(PID.TID 0000.0001) %MON dynstat_uvel_sd              =   4.8161825615179E-03
(PID.TID 0000.0001) %MON dynstat_uvel_del2            =   1.7055710789586E-04
(PID.TID 0000.0001) %MON dynstat_vvel_max             =   1.1322463539344E-02
(PID.TID 0000.0001) %MON dynstat_vvel_min             =  -1.1320825607915E-02
(PID.TID 0000.0001) %MON dynstat_vvel_mean            =  -2.4663334088231E-10
(PID.TID 0000.0001) %MON dynstat_vvel_sd              =   3.7341849255577E-03
(PID.TID 0000.0001) %MON dynstat_vvel_del2            =   1.0525625073235E-04
(PID.TID 0000.0001) %MON dynstat_wvel_max             =   1.8782431885639E-04
(PID.TID 0000.0001) %MON dynstat_wvel_min             =  -1.8812796363269E-04
(PID.TID 0000.0001) %MON dynstat_wvel_mean            =   2.4804790429538E-21
(PID.TID 0000.0001) %MON dynstat_wvel_sd              =   6.2332889708216E-05
(PID.TID 0000.0001) %MON dynstat_wvel_del2            =   5.9737688675421E-06
(PID.TID 0000.0001) %MON dynstat_theta_max            =   1.7020391872573E+01
(PID.TID 0000.0001) %MON dynstat_theta_min            =   1.6979608188987E+01
(PID.TID 0000.0001) %MON dynstat_theta_mean           =   1.6999999916868E+01
(PID.TID 0000.0001) %MON dynstat_theta_sd             =   1.8679391269764E-02
(PID.TID 0000.0001) %MON dynstat_theta_del2           =   1.9599157959529E-04
(PID.TID 0000.0001) %MON dynstat_salt_max             =   1.7020387109311E+01
(PID.TID 0000.0001) %MON dynstat_salt_min             =   1.6979612982851E+01
(PID.TID 0000.0001) %MON dynstat_salt_mean            =   1.7000000005832E+01
(PID.TID 0000.0001) %MON dynstat_salt_sd              =   1.8683271414238E-02
(PID.TID 0000.0001) %MON dynstat_salt_del2            =   1.9895381558776E-04
(PID.TID 0000.0001) %MON advcfl_uvel_max              =   2.5945660606794E-02
(PID.TID 0000.0001) %MON advcfl_vvel_max              =   1.3586956247212E-02
(PID.TID 0000.0001) %MON advcfl_wvel_max              =   4.5150711271844E-02
(PID.TID 0000.0001) %MON advcfl_W_hf_max              =   4.5150711271844E-02
(PID.TID 0000.0001) %MON pe_b_mean                    =   3.4182565404314E-09
(PID.TID 0000.0001) %MON ke_max                       =   2.7641190857091E-04
(PID.TID 0000.0001) %MON ke_mean                      =   1.8290993438792E-05
(PID.TID 0000.0001) %MON ke_vol                       =   2.5000000000000E+11
(PID.TID 0000.0001) %MON vort_r_min                   =  -7.5841007240625E-06
(PID.TID 0000.0001) %MON vort_r_max                   =   7.9877062443697E-06
(PID.TID 0000.0001) %MON vort_a_mean                  =   7.2900000000000E-05
(PID.TID 0000.0001) %MON vort_a_sd                    =   1.9255995495185E-06
(PID.TID 0000.0001) %MON vort_p_mean                  =   7.7363265306122E-05
(PID.TID 0000.0001) %MON vort_p_sd                    =   3.0985968999310E-05
(PID.TID 0000.0001) %MON surfExpan_theta_mean         =  -2.9502370687234E-13
(PID.TID 0000.0001) %MON surfExpan_salt_mean          =  -1.6045343169417E-16
(PID.TID 0000.0001) // =======================================================
(PID.TID 0000.0001) // End MONITOR dynamic field statistics
(PID.TID 0000.0001) // =======================================================
 cg2d: Sum(rhs),rhsMax =  -5.54906327051435E-13  7.78799753600783E-04
(PID.TID 0000.0001)                    cg2d_init_res =    9.60142485572851E-02
(PID.TID 0000.0001)                       cg2d_iters =    76
(PID.TID 0000.0001)                         cg2d_res =    9.71904594974454E-12
(PID.TID 0000.0001) // =======================================================
(PID.TID 0000.0001) // Begin MONITOR dynamic field statistics
(PID.TID 0000.0001) // =======================================================
(PID.TID 0000.0001) %MON time_tsnumber                =                    56
(PID.TID 0000.0001) %MON time_secondsf                =   6.7200000000000E+04
(PID.TID 0000.0001) %MON dynstat_eta_max              =   4.0177351048471E-04
(PID.TID 0000.0001) %MON dynstat_eta_min              =  -4.1373200493239E-04
(PID.TID 0000.0001) %MON dynstat_eta_mean             =   7.1319034667949E-17
(PID.TID 0000.0001) %MON dynstat_eta_sd               =   3.7333989907452E-04
(PID.TID 0000.0001) %MON dynstat_eta_del2             =   3.8592697303973E-06
(PID.TID 0000.0001) %MON dynstat_uvel_max             =   2.0453593621079E-02
(PID.TID 0000.0001) %MON dynstat_uvel_min             =  -2.0455013545586E-02
(PID.TID 0000.0001) %MON dynstat_uvel_mean            =  -9.1421375549486E-07
(PID.TID 0000.0001) %MON dynstat_uvel_sd              =   4.4917343858107E-03
(PID.TID 0000.0001) %MON dynstat_uvel_del2            =   1.6466951331020E-04
(PID.TID 0000.0001) %MON dynstat_vvel_max             =   1.1114483498109E-02
(PID.TID 0000.0001) %MON dynstat_vvel_min             =  -1.1112775046673E-02
(PID.TID 0000.0001) %MON dynstat_vvel_mean            =  -2.3446530031437E-10
(PID.TID 0000.0001) %MON dynstat_vvel_sd              =   3.6763366158240E-03
(PID.TID 0000.0001) %MON dynstat_vvel_del2            =   1.0492612178079E-04
(PID.TID 0000.0001) %MON dynstat_wvel_max             =   1.8405314998056E-04
(PID.TID 0000.0001) %MON dynstat_wvel_min             =  -1.8436559124242E-04
(PID.TID 0000.0001) %MON dynstat_wvel_mean            =  -1.0277792984752E-21
(PID.TID 0000.0001) %MON dynstat_wvel_sd              =   6.1483262977323E-05
(PID.TID 0000.0001) %MON dynstat_wvel_del2            =   6.0161747895957E-06
(PID.TID 0000.0001) %MON dynstat_theta_max            =   1.7020391872572E+01
(PID.TID 0000.0001) %MON dynstat_theta_min            =   1.6979608188987E+01
(PID.TID 0000.0001) %MON dynstat_theta_mean           =   1.6999999916869E+01
(PID.TID 0000.0001) %MON dynstat_theta_sd             =   1.8679317506961E-02
(PID.TID 0000.0001) %MON dynstat_theta_del2           =   1.9597127519248E-04
(PID.TID 0000.0001) %MON dynstat_salt_max             =   1.7020387109311E+01
(PID.TID 0000.0001) %MON dynstat_salt_min             =   1.6979612982851E+01
(PID.TID 0000.0001) %MON dynstat_salt_mean            =   1.7000000005832E+01
(PID.TID 0000.0001) %MON dynstat_salt_sd              =   1.8682599331882E-02
(PID.TID 0000.0001) %MON dynstat_salt_del2            =   2.0062852773131E-04
(PID.TID 0000.0001) %MON advcfl_uvel_max              =   2.4546016254703E-02
(PID.TID 0000.0001) %MON advcfl_vvel_max              =   1.3337380197731E-02
(PID.TID 0000.0001) %MON advcfl_wvel_max              =   4.4247741898180E-02
(PID.TID 0000.0001) %MON advcfl_W_hf_max              =   4.4247741898180E-02
(PID.TID 0000.0001) %MON pe_b_mean                    =   3.4183602329098E-09
(PID.TID 0000.0001) %MON ke_max                       =   2.4948195170167E-04
(PID.TID 0000.0001) %MON ke_mean                      =   1.6575255752398E-05
(PID.TID 0000.0001) %MON ke_vol                       =   2.5000000000000E+11
(PID.TID 0000.0001) %MON vort_r_min                   =  -7.3305394463055E-06
(PID.TID 0000.0001) %MON vort_r_max                   =   7.6591141562847E-06
(PID.TID 0000.0001) %MON vort_a_mean                  =   7.2900000000000E-05
(PID.TID 0000.0001) %MON vort_a_sd                    =   1.8397562319936E-06
(PID.TID 0000.0001) %MON vort_p_mean                  =   7.7363265306122E-05
(PID.TID 0000.0001) %MON vort_p_sd                    =   3.0980433579494E-05
(PID.TID 0000.0001) %MON surfExpan_theta_mean         =  -2.3217306245343E-13
(PID.TID 0000.0001) %MON surfExpan_salt_mean          =  -2.6858400373160E-16
(PID.TID 0000.0001) // =======================================================
(PID.TID 0000.0001) // End MONITOR dynamic field statistics
(PID.TID 0000.0001) // =======================================================
 cg2d: Sum(rhs),rhsMax =  -4.40635104358850E-13  7.80552106273264E-04
(PID.TID 0000.0001)                    cg2d_init_res =    1.17105995591355E-01
(PID.TID 0000.0001)                       cg2d_iters =    79
(PID.TID 0000.0001)                         cg2d_res =    8.43282954472419E-12
(PID.TID 0000.0001) // =======================================================
(PID.TID 0000.0001) // Begin MONITOR dynamic field statistics
(PID.TID 0000.0001) // =======================================================
(PID.TID 0000.0001) %MON time_tsnumber                =                    57
(PID.TID 0000.0001) %MON time_secondsf                =   6.8400000000000E+04
(PID.TID 0000.0001) %MON dynstat_eta_max              =   4.0196611822497E-04
(PID.TID 0000.0001) %MON dynstat_eta_min              =  -4.1353939732866E-04
(PID.TID 0000.0001) %MON dynstat_eta_mean             =   5.9687076708892E-17
(PID.TID 0000.0001) %MON dynstat_eta_sd               =   3.7334672779682E-04
(PID.TID 0000.0001) %MON dynstat_eta_del2             =   3.8585590243513E-06
(PID.TID 0000.0001) %MON dynstat_uvel_max             =   1.9325628392956E-02
(PID.TID 0000.0001) %MON dynstat_uvel_min             =  -1.9326881780202E-02
(PID.TID 0000.0001) %MON dynstat_uvel_mean            =  -9.1421782416645E-07
(PID.TID 0000.0001) %MON dynstat_uvel_sd              =   4.1784604746869E-03
(PID.TID 0000.0001) %MON dynstat_uvel_del2            =   1.5947214463927E-04
(PID.TID 0000.0001) %MON dynstat_vvel_max             =   1.0822404528885E-02
(PID.TID 0000.0001) %MON dynstat_vvel_min             =  -1.0820628700217E-02
(PID.TID 0000.0001) %MON dynstat_vvel_mean            =  -2.2084263352771E-10
(PID.TID 0000.0001) %MON dynstat_vvel_sd              =   3.5899985584890E-03
(PID.TID 0000.0001) %MON dynstat_vvel_del2            =   1.0439798172643E-04
(PID.TID 0000.0001) %MON dynstat_wvel_max             =   1.8137747562313E-04
(PID.TID 0000.0001) %MON dynstat_wvel_min             =  -1.8140785598428E-04
(PID.TID 0000.0001) %MON dynstat_wvel_mean            =  -7.2359711897828E-22
(PID.TID 0000.0001) %MON dynstat_wvel_sd              =   6.0262389592802E-05
(PID.TID 0000.0001) %MON dynstat_wvel_del2            =   6.0561780430882E-06
(PID.TID 0000.0001) %MON dynstat_theta_max            =   1.7020391872572E+01
(PID.TID 0000.0001) %MON dynstat_theta_min            =   1.6979608188987E+01
(PID.TID 0000.0001) %MON dynstat_theta_mean           =   1.6999999916870E+01
(PID.TID 0000.0001) %MON dynstat_theta_sd             =   1.8679246830929E-02
(PID.TID 0000.0001) %MON dynstat_theta_del2           =   1.9595052103187E-04
(PID.TID 0000.0001) %MON dynstat_salt_max             =   1.7020387109312E+01
(PID.TID 0000.0001) %MON dynstat_salt_min             =   1.6979612982851E+01
(PID.TID 0000.0001) %MON dynstat_salt_mean            =   1.7000000005832E+01
(PID.TID 0000.0001) %MON dynstat_salt_sd              =   1.8682371122906E-02
(PID.TID 0000.0001) %MON dynstat_salt_del2            =   2.0206548155729E-04
(PID.TID 0000.0001) %MON advcfl_uvel_max              =   2.3192258136242E-02
(PID.TID 0000.0001) %MON advcfl_vvel_max              =   1.2986885434662E-02
(PID.TID 0000.0001) %MON advcfl_wvel_max              =   4.3537885436226E-02
(PID.TID 0000.0001) %MON advcfl_W_hf_max              =   4.3537885436226E-02
(PID.TID 0000.0001) %MON pe_b_mean                    =   3.4184852838155E-09
(PID.TID 0000.0001) %MON ke_max                       =   2.2390691839733E-04
(PID.TID 0000.0001) %MON ke_mean                      =   1.4916049419135E-05
(PID.TID 0000.0001) %MON ke_vol                       =   2.5000000000000E+11
(PID.TID 0000.0001) %MON vort_r_min                   =  -7.0920618490507E-06
(PID.TID 0000.0001) %MON vort_r_max                   =   7.3468804003950E-06
(PID.TID 0000.0001) %MON vort_a_mean                  =   7.2900000000001E-05
(PID.TID 0000.0001) %MON vort_a_sd                    =   1.7589097173157E-06
(PID.TID 0000.0001) %MON vort_p_mean                  =   7.7363265306123E-05
(PID.TID 0000.0001) %MON vort_p_sd                    =   3.0975450354364E-05
(PID.TID 0000.0001) %MON surfExpan_theta_mean         =  -1.8223998980426E-13
(PID.TID 0000.0001) %MON surfExpan_salt_mean          =   2.0677390990523E-16
(PID.TID 0000.0001) // =======================================================
(PID.TID 0000.0001) // End MONITOR dynamic field statistics
(PID.TID 0000.0001) // =======================================================
 cg2d: Sum(rhs),rhsMax =  -2.22842523513872E-13  7.81569161172359E-04
(PID.TID 0000.0001)                    cg2d_init_res =    9.84469746705566E-02
(PID.TID 0000.0001)                       cg2d_iters =    77
(PID.TID 0000.0001)                         cg2d_res =    9.58704975143571E-12
(PID.TID 0000.0001) // =======================================================
(PID.TID 0000.0001) // Begin MONITOR dynamic field statistics
(PID.TID 0000.0001) // =======================================================
(PID.TID 0000.0001) %MON time_tsnumber                =                    58
(PID.TID 0000.0001) %MON time_secondsf                =   6.9600000000000E+04
(PID.TID 0000.0001) %MON dynstat_eta_max              =   4.0212850151016E-04
(PID.TID 0000.0001) %MON dynstat_eta_min              =  -4.1337701300713E-04
(PID.TID 0000.0001) %MON dynstat_eta_mean             =   6.2162022450019E-17
(PID.TID 0000.0001) %MON dynstat_eta_sd               =   3.7335454322221E-04
(PID.TID 0000.0001) %MON dynstat_eta_del2             =   3.8580268215677E-06
(PID.TID 0000.0001) %MON dynstat_uvel_max             =   1.8242856011896E-02
(PID.TID 0000.0001) %MON dynstat_uvel_min             =  -1.8244171550888E-02
(PID.TID 0000.0001) %MON dynstat_uvel_mean            =  -9.1422376579026E-07
(PID.TID 0000.0001) %MON dynstat_uvel_sd              =   3.8790302162169E-03
(PID.TID 0000.0001) %MON dynstat_uvel_del2            =   1.5494434083124E-04
(PID.TID 0000.0001) %MON dynstat_vvel_max             =   1.0449435927603E-02
(PID.TID 0000.0001) %MON dynstat_vvel_min             =  -1.0447595367203E-02
(PID.TID 0000.0001) %MON dynstat_vvel_mean            =  -2.0660470938422E-10
(PID.TID 0000.0001) %MON dynstat_vvel_sd              =   3.4761931864207E-03
(PID.TID 0000.0001) %MON dynstat_vvel_del2            =   1.0375417891451E-04
(PID.TID 0000.0001) %MON dynstat_wvel_max             =   1.7786824965341E-04
(PID.TID 0000.0001) %MON dynstat_wvel_min             =  -1.7790500373088E-04
(PID.TID 0000.0001) %MON dynstat_wvel_mean            =  -1.3711577663483E-21
(PID.TID 0000.0001) %MON dynstat_wvel_sd              =   5.8707563074458E-05
(PID.TID 0000.0001) %MON dynstat_wvel_del2            =   6.0901812847401E-06
(PID.TID 0000.0001) %MON dynstat_theta_max            =   1.7020391872572E+01
(PID.TID 0000.0001) %MON dynstat_theta_min            =   1.6979608188987E+01
(PID.TID 0000.0001) %MON dynstat_theta_mean           =   1.6999999916871E+01
(PID.TID 0000.0001) %MON dynstat_theta_sd             =   1.8679178307868E-02
(PID.TID 0000.0001) %MON dynstat_theta_del2           =   1.9593012153937E-04
(PID.TID 0000.0001) %MON dynstat_salt_max             =   1.7020387109312E+01
(PID.TID 0000.0001) %MON dynstat_salt_min             =   1.6979612982851E+01
(PID.TID 0000.0001) %MON dynstat_salt_mean            =   1.7000000005832E+01
(PID.TID 0000.0001) %MON dynstat_salt_sd              =   1.8682133577865E-02
(PID.TID 0000.0001) %MON dynstat_salt_del2            =   2.0312126014991E-04
(PID.TID 0000.0001) %MON advcfl_uvel_max              =   2.1893005861066E-02
(PID.TID 0000.0001) %MON advcfl_vvel_max              =   1.2539323113123E-02
(PID.TID 0000.0001) %MON advcfl_wvel_max              =   4.2697200895412E-02
(PID.TID 0000.0001) %MON advcfl_W_hf_max              =   4.2697200895412E-02
(PID.TID 0000.0001) %MON pe_b_mean                    =   3.4186284065179E-09
(PID.TID 0000.0001) %MON ke_max                       =   1.9981973447939E-04
(PID.TID 0000.0001) %MON ke_mean                      =   1.3323719280337E-05
(PID.TID 0000.0001) %MON ke_vol                       =   2.5000000000000E+11
(PID.TID 0000.0001) %MON vort_r_min                   =  -6.8691293857389E-06
(PID.TID 0000.0001) %MON vort_r_max                   =   7.0520190340762E-06
(PID.TID 0000.0001) %MON vort_a_mean                  =   7.2899999999999E-05
(PID.TID 0000.0001) %MON vort_a_sd                    =   1.6835378362567E-06
(PID.TID 0000.0001) %MON vort_p_mean                  =   7.7363265306122E-05
(PID.TID 0000.0001) %MON vort_p_sd                    =   3.0971005625632E-05
(PID.TID 0000.0001) %MON surfExpan_theta_mean         =  -1.2735186646957E-13
(PID.TID 0000.0001) %MON surfExpan_salt_mean          =   2.0497347317626E-17
(PID.TID 0000.0001) // =======================================================
(PID.TID 0000.0001) // End MONITOR dynamic field statistics
(PID.TID 0000.0001) // =======================================================
 cg2d: Sum(rhs),rhsMax =  -4.58460634907010E-13  7.82544953130004E-04
(PID.TID 0000.0001)                    cg2d_init_res =    9.36147312377351E-02
(PID.TID 0000.0001)                       cg2d_iters =    77
(PID.TID 0000.0001)                         cg2d_res =    7.18280462286256E-12
(PID.TID 0000.0001) // =======================================================
(PID.TID 0000.0001) // Begin MONITOR dynamic field statistics
(PID.TID 0000.0001) // =======================================================
(PID.TID 0000.0001) %MON time_tsnumber                =                    59
(PID.TID 0000.0001) %MON time_secondsf                =   7.0800000000000E+04
(PID.TID 0000.0001) %MON dynstat_eta_max              =   4.0225587876549E-04
(PID.TID 0000.0001) %MON dynstat_eta_min              =  -4.1324963641704E-04
(PID.TID 0000.0001) %MON dynstat_eta_mean             =   4.8635967900834E-17
(PID.TID 0000.0001) %MON dynstat_eta_sd               =   3.7336291981013E-04
(PID.TID 0000.0001) %MON dynstat_eta_del2             =   3.8576165409416E-06
(PID.TID 0000.0001) %MON dynstat_uvel_max             =   1.7211884006723E-02
(PID.TID 0000.0001) %MON dynstat_uvel_min             =  -1.7213259104119E-02
(PID.TID 0000.0001) %MON dynstat_uvel_mean            =  -9.1423107525054E-07
(PID.TID 0000.0001) %MON dynstat_uvel_sd              =   3.5960203168837E-03
(PID.TID 0000.0001) %MON dynstat_uvel_del2            =   1.5104874893991E-04
(PID.TID 0000.0001) %MON dynstat_vvel_max             =   9.9994543442565E-03
(PID.TID 0000.0001) %MON dynstat_vvel_min             =  -9.9975516899635E-03
(PID.TID 0000.0001) %MON dynstat_vvel_mean            =  -1.9086477628341E-10
(PID.TID 0000.0001) %MON dynstat_vvel_sd              =   3.3361812168033E-03
(PID.TID 0000.0001) %MON dynstat_vvel_del2            =   1.0336276214944E-04
(PID.TID 0000.0001) %MON dynstat_wvel_max             =   1.7337821151667E-04
(PID.TID 0000.0001) %MON dynstat_wvel_min             =  -1.7342108198509E-04
(PID.TID 0000.0001) %MON dynstat_wvel_mean            =   7.3207293869966E-22
(PID.TID 0000.0001) %MON dynstat_wvel_sd              =   5.6864827920995E-05
(PID.TID 0000.0001) %MON dynstat_wvel_del2            =   6.1205924261408E-06
(PID.TID 0000.0001) %MON dynstat_theta_max            =   1.7020391872572E+01
(PID.TID 0000.0001) %MON dynstat_theta_min            =   1.6979608188987E+01
(PID.TID 0000.0001) %MON dynstat_theta_mean           =   1.6999999916872E+01
(PID.TID 0000.0001) %MON dynstat_theta_sd             =   1.8679112400651E-02
(PID.TID 0000.0001) %MON dynstat_theta_del2           =   1.9591117079600E-04
(PID.TID 0000.0001) %MON dynstat_salt_max             =   1.7020387109312E+01
(PID.TID 0000.0001) %MON dynstat_salt_min             =   1.6979612982852E+01
(PID.TID 0000.0001) %MON dynstat_salt_mean            =   1.7000000005832E+01
(PID.TID 0000.0001) %MON dynstat_salt_sd              =   1.8681880034855E-02
(PID.TID 0000.0001) %MON dynstat_salt_del2            =   2.0412307080387E-04
(PID.TID 0000.0001) %MON advcfl_uvel_max              =   2.0655910924943E-02
(PID.TID 0000.0001) %MON advcfl_vvel_max              =   1.1999345213108E-02
(PID.TID 0000.0001) %MON advcfl_wvel_max              =   4.1621059676421E-02
(PID.TID 0000.0001) %MON advcfl_W_hf_max              =   4.1621059676421E-02
(PID.TID 0000.0001) %MON pe_b_mean                    =   3.4187818090312E-09
(PID.TID 0000.0001) %MON ke_max                       =   1.7734385121923E-04
(PID.TID 0000.0001) %MON ke_mean                      =   1.1808131931078E-05
(PID.TID 0000.0001) %MON ke_vol                       =   2.5000000000000E+11
(PID.TID 0000.0001) %MON vort_r_min                   =  -6.6622474226358E-06
(PID.TID 0000.0001) %MON vort_r_max                   =   6.7756095460144E-06
(PID.TID 0000.0001) %MON vort_a_mean                  =   7.2900000000001E-05
(PID.TID 0000.0001) %MON vort_a_sd                    =   1.6140500365506E-06
(PID.TID 0000.0001) %MON vort_p_mean                  =   7.7363265306123E-05
(PID.TID 0000.0001) %MON vort_p_sd                    =   3.0967079862572E-05
(PID.TID 0000.0001) %MON surfExpan_theta_mean         =  -8.2572343787231E-14
(PID.TID 0000.0001) %MON surfExpan_salt_mean          =  -4.3470070251465E-17
(PID.TID 0000.0001) // =======================================================
(PID.TID 0000.0001) // End MONITOR dynamic field statistics
(PID.TID 0000.0001) // =======================================================
 cg2d: Sum(rhs),rhsMax =  -1.01190811372526E-13  7.83596701694680E-04
(PID.TID 0000.0001)                    cg2d_init_res =    9.19448805754560E-02
(PID.TID 0000.0001)                       cg2d_iters =    79
(PID.TID 0000.0001)                         cg2d_res =    7.28739626346195E-12
(PID.TID 0000.0001) // =======================================================
(PID.TID 0000.0001) // Begin MONITOR dynamic field statistics
(PID.TID 0000.0001) // =======================================================
(PID.TID 0000.0001) %MON time_tsnumber                =                    60
(PID.TID 0000.0001) %MON time_secondsf                =   7.2000000000000E+04
(PID.TID 0000.0001) %MON dynstat_eta_max              =   4.0234864764921E-04
(PID.TID 0000.0001) %MON dynstat_eta_min              =  -4.1315686684921E-04
(PID.TID 0000.0001) %MON dynstat_eta_mean             =   5.7366114931678E-17
(PID.TID 0000.0001) %MON dynstat_eta_sd               =   3.7337150623930E-04
(PID.TID 0000.0001) %MON dynstat_eta_del2             =   3.8572773606783E-06
(PID.TID 0000.0001) %MON dynstat_uvel_max             =   1.6238903566614E-02
(PID.TID 0000.0001) %MON dynstat_uvel_min             =  -1.6240334698667E-02
(PID.TID 0000.0001) %MON dynstat_uvel_mean            =  -9.1423925095724E-07
(PID.TID 0000.0001) %MON dynstat_uvel_sd              =   3.3318626383312E-03
(PID.TID 0000.0001) %MON dynstat_uvel_del2            =   1.4780883775766E-04
(PID.TID 0000.0001) %MON dynstat_vvel_max             =   9.4768144943781E-03
(PID.TID 0000.0001) %MON dynstat_vvel_min             =  -9.4748532515555E-03
(PID.TID 0000.0001) %MON dynstat_vvel_mean            =  -1.7409656233047E-10
(PID.TID 0000.0001) %MON dynstat_vvel_sd              =   3.1714605586794E-03
(PID.TID 0000.0001) %MON dynstat_vvel_del2            =   1.0344950901385E-04
(PID.TID 0000.0001) %MON dynstat_wvel_max             =   1.6797219367808E-04
(PID.TID 0000.0001) %MON dynstat_wvel_min             =  -1.6802077745471E-04
(PID.TID 0000.0001) %MON dynstat_wvel_mean            =  -3.6582923955856E-21
(PID.TID 0000.0001) %MON dynstat_wvel_sd              =   5.4788411467905E-05
(PID.TID 0000.0001) %MON dynstat_wvel_del2            =   6.1475057253906E-06
(PID.TID 0000.0001) %MON dynstat_theta_max            =   1.7020391872572E+01
(PID.TID 0000.0001) %MON dynstat_theta_min            =   1.6979608188987E+01
(PID.TID 0000.0001) %MON dynstat_theta_mean           =   1.6999999916872E+01
(PID.TID 0000.0001) %MON dynstat_theta_sd             =   1.8679050386435E-02
(PID.TID 0000.0001) %MON dynstat_theta_del2           =   1.9589484887369E-04
(PID.TID 0000.0001) %MON dynstat_salt_max             =   1.7020387109312E+01
(PID.TID 0000.0001) %MON dynstat_salt_min             =   1.6979612982852E+01
(PID.TID 0000.0001) %MON dynstat_salt_mean            =   1.7000000005832E+01
(PID.TID 0000.0001) %MON dynstat_salt_sd              =   1.8681728604252E-02
(PID.TID 0000.0001) %MON dynstat_salt_del2            =   2.0488208368722E-04
(PID.TID 0000.0001) %MON advcfl_uvel_max              =   1.9488401638401E-02
(PID.TID 0000.0001) %MON advcfl_vvel_max              =   1.1372177393254E-02
(PID.TID 0000.0001) %MON advcfl_wvel_max              =   4.0324986589131E-02
(PID.TID 0000.0001) %MON advcfl_W_hf_max              =   4.0324986589131E-02
(PID.TID 0000.0001) %MON pe_b_mean                    =   3.4189390579912E-09
(PID.TID 0000.0001) %MON ke_max                       =   1.5659209083051E-04
(PID.TID 0000.0001) %MON ke_mean                      =   1.0378572534395E-05
(PID.TID 0000.0001) %MON ke_vol                       =   2.5000000000000E+11
(PID.TID 0000.0001) %MON vort_r_min                   =  -6.4717691228861E-06
(PID.TID 0000.0001) %MON vort_r_max                   =   6.5186076252078E-06
(PID.TID 0000.0001) %MON vort_a_mean                  =   7.2900000000000E-05
(PID.TID 0000.0001) %MON vort_a_sd                    =   1.5507720294908E-06
(PID.TID 0000.0001) %MON vort_p_mean                  =   7.7363265306123E-05
(PID.TID 0000.0001) %MON vort_p_sd                    =   3.0963648535716E-05
(PID.TID 0000.0001) %MON surfExpan_theta_mean         =  -4.6731248892578E-14
(PID.TID 0000.0001) %MON surfExpan_salt_mean          =  -4.2253723318988E-16
(PID.TID 0000.0001) // =======================================================
(PID.TID 0000.0001) // End MONITOR dynamic field statistics
(PID.TID 0000.0001) // =======================================================
 cg2d: Sum(rhs),rhsMax =  -1.63661456348968E-13  7.84316676588051E-04
(PID.TID 0000.0001)                    cg2d_init_res =    8.19898586080536E-02
(PID.TID 0000.0001)                       cg2d_iters =    76
(PID.TID 0000.0001)                         cg2d_res =    9.64343770855443E-12
(PID.TID 0000.0001) // =======================================================
(PID.TID 0000.0001) // Begin MONITOR dynamic field statistics
(PID.TID 0000.0001) // =======================================================
(PID.TID 0000.0001) %MON time_tsnumber                =                    61
(PID.TID 0000.0001) %MON time_secondsf                =   7.3200000000000E+04
(PID.TID 0000.0001) %MON dynstat_eta_max              =   4.0241253719251E-04
(PID.TID 0000.0001) %MON dynstat_eta_min              =  -4.1309297484649E-04
(PID.TID 0000.0001) %MON dynstat_eta_mean             =   4.9270606431451E-17
(PID.TID 0000.0001) %MON dynstat_eta_sd               =   3.7338007679757E-04
(PID.TID 0000.0001) %MON dynstat_eta_del2             =   3.8569678620253E-06
(PID.TID 0000.0001) %MON dynstat_uvel_max             =   1.5329651900028E-02
(PID.TID 0000.0001) %MON dynstat_uvel_min             =  -1.5331134979996E-02
(PID.TID 0000.0001) %MON dynstat_uvel_mean            =  -9.1424814928990E-07
(PID.TID 0000.0001) %MON dynstat_uvel_sd              =   3.0887781547959E-03
(PID.TID 0000.0001) %MON dynstat_uvel_del2            =   1.4517084726074E-04
(PID.TID 0000.0001) %MON dynstat_vvel_max             =   8.8863630593589E-03
(PID.TID 0000.0001) %MON dynstat_vvel_min             =  -8.8843462957859E-03
(PID.TID 0000.0001) %MON dynstat_vvel_mean            =  -1.5757381812143E-10
(PID.TID 0000.0001) %MON dynstat_vvel_sd              =   2.9837933523816E-03
(PID.TID 0000.0001) %MON dynstat_vvel_del2            =   1.0345568613807E-04
(PID.TID 0000.0001) %MON dynstat_wvel_max             =   1.6164857958479E-04
(PID.TID 0000.0001) %MON dynstat_wvel_min             =  -1.6170235476210E-04
(PID.TID 0000.0001) %MON dynstat_wvel_mean            =  -1.5396837725382E-21
(PID.TID 0000.0001) %MON dynstat_wvel_sd              =   5.2544156800530E-05
(PID.TID 0000.0001) %MON dynstat_wvel_del2            =   6.1742656925311E-06
(PID.TID 0000.0001) %MON dynstat_theta_max            =   1.7020391872572E+01
(PID.TID 0000.0001) %MON dynstat_theta_min            =   1.6979608188987E+01
(PID.TID 0000.0001) %MON dynstat_theta_mean           =   1.6999999916872E+01
(PID.TID 0000.0001) %MON dynstat_theta_sd             =   1.8678992234435E-02
(PID.TID 0000.0001) %MON dynstat_theta_del2           =   1.9588228819395E-04
(PID.TID 0000.0001) %MON dynstat_salt_max             =   1.7020387109312E+01
(PID.TID 0000.0001) %MON dynstat_salt_min             =   1.6979612982852E+01
(PID.TID 0000.0001) %MON dynstat_salt_mean            =   1.7000000005832E+01
(PID.TID 0000.0001) %MON dynstat_salt_sd              =   1.8681583087695E-02
(PID.TID 0000.0001) %MON dynstat_salt_del2            =   2.0551560526643E-04
(PID.TID 0000.0001) %MON advcfl_uvel_max              =   1.8397361975995E-02
(PID.TID 0000.0001) %MON advcfl_vvel_max              =   1.0663635671231E-02
(PID.TID 0000.0001) %MON advcfl_wvel_max              =   3.8808565142903E-02
(PID.TID 0000.0001) %MON advcfl_W_hf_max              =   3.8808565142903E-02
(PID.TID 0000.0001) %MON pe_b_mean                    =   3.4190960199030E-09
(PID.TID 0000.0001) %MON ke_max                       =   1.3766576713793E-04
(PID.TID 0000.0001) %MON ke_mean                      =   9.0437265921610E-06
(PID.TID 0000.0001) %MON ke_vol                       =   2.5000000000000E+11
(PID.TID 0000.0001) %MON vort_r_min                   =  -6.2979532778878E-06
(PID.TID 0000.0001) %MON vort_r_max                   =   6.2819083346359E-06
(PID.TID 0000.0001) %MON vort_a_mean                  =   7.2900000000000E-05
(PID.TID 0000.0001) %MON vort_a_sd                    =   1.4939354811112E-06
(PID.TID 0000.0001) %MON vort_p_mean                  =   7.7363265306122E-05
(PID.TID 0000.0001) %MON vort_p_sd                    =   3.0960683273738E-05
(PID.TID 0000.0001) %MON surfExpan_theta_mean         =  -1.5532974455956E-14
(PID.TID 0000.0001) %MON surfExpan_salt_mean          =   9.0827428896712E-17
(PID.TID 0000.0001) // =======================================================
(PID.TID 0000.0001) // End MONITOR dynamic field statistics
(PID.TID 0000.0001) // =======================================================
 cg2d: Sum(rhs),rhsMax =  -2.49042214801876E-13  7.84969731696291E-04
(PID.TID 0000.0001)                    cg2d_init_res =    7.70619494823761E-02
(PID.TID 0000.0001)                       cg2d_iters =    81
(PID.TID 0000.0001)                         cg2d_res =    8.87766728725335E-12
(PID.TID 0000.0001) // =======================================================
(PID.TID 0000.0001) // Begin MONITOR dynamic field statistics
(PID.TID 0000.0001) // =======================================================
(PID.TID 0000.0001) %MON time_tsnumber                =                    62
(PID.TID 0000.0001) %MON time_secondsf                =   7.4400000000000E+04
(PID.TID 0000.0001) %MON dynstat_eta_max              =   4.0244935684230E-04
(PID.TID 0000.0001) %MON dynstat_eta_min              =  -4.1305616047958E-04
(PID.TID 0000.0001) %MON dynstat_eta_mean             =   5.8826954353330E-17
(PID.TID 0000.0001) %MON dynstat_eta_sd               =   3.7338828323785E-04
(PID.TID 0000.0001) %MON dynstat_eta_del2             =   3.8566374533769E-06
(PID.TID 0000.0001) %MON dynstat_uvel_max             =   1.4489374367893E-02
(PID.TID 0000.0001) %MON dynstat_uvel_min             =  -1.4490904655117E-02
(PID.TID 0000.0001) %MON dynstat_uvel_mean            =  -9.1425742870427E-07
(PID.TID 0000.0001) %MON dynstat_uvel_sd              =   2.8686867632013E-03
(PID.TID 0000.0001) %MON dynstat_uvel_del2            =   1.4310205681385E-04
(PID.TID 0000.0001) %MON dynstat_vvel_max             =   8.2334415128520E-03
(PID.TID 0000.0001) %MON dynstat_vvel_min             =  -8.2313729229525E-03
(PID.TID 0000.0001) %MON dynstat_vvel_mean            =  -1.3968730284212E-10
(PID.TID 0000.0001) %MON dynstat_vvel_sd              =   2.7751999435440E-03
(PID.TID 0000.0001) %MON dynstat_vvel_del2            =   1.0331730575126E-04
(PID.TID 0000.0001) %MON dynstat_wvel_max             =   1.5446292548751E-04
(PID.TID 0000.0001) %MON dynstat_wvel_min             =  -1.5452144406649E-04
(PID.TID 0000.0001) %MON dynstat_wvel_mean            =   1.1383658122115E-21
(PID.TID 0000.0001) %MON dynstat_wvel_sd              =   5.0206856663517E-05
(PID.TID 0000.0001) %MON dynstat_wvel_del2            =   6.2032254370014E-06
(PID.TID 0000.0001) %MON dynstat_theta_max            =   1.7020391872572E+01
(PID.TID 0000.0001) %MON dynstat_theta_min            =   1.6979608188987E+01
(PID.TID 0000.0001) %MON dynstat_theta_mean           =   1.6999999916872E+01
(PID.TID 0000.0001) %MON dynstat_theta_sd             =   1.8678939153116E-02
(PID.TID 0000.0001) %MON dynstat_theta_del2           =   1.9587462140508E-04
(PID.TID 0000.0001) %MON dynstat_salt_max             =   1.7020387109312E+01
(PID.TID 0000.0001) %MON dynstat_salt_min             =   1.6979612982852E+01
(PID.TID 0000.0001) %MON dynstat_salt_mean            =   1.7000000005832E+01
(PID.TID 0000.0001) %MON dynstat_salt_sd              =   1.8681537178400E-02
(PID.TID 0000.0001) %MON dynstat_salt_del2            =   2.0589611678037E-04
(PID.TID 0000.0001) %MON advcfl_uvel_max              =   1.7389085586140E-02
(PID.TID 0000.0001) %MON advcfl_vvel_max              =   9.8801298154224E-03
(PID.TID 0000.0001) %MON advcfl_wvel_max              =   3.7085146575958E-02
(PID.TID 0000.0001) %MON advcfl_W_hf_max              =   3.7085146575958E-02
(PID.TID 0000.0001) %MON pe_b_mean                    =   3.4192463167045E-09
(PID.TID 0000.0001) %MON ke_max                       =   1.2065381015898E-04
(PID.TID 0000.0001) %MON ke_mean                      =   7.8115149594069E-06
(PID.TID 0000.0001) %MON ke_vol                       =   2.5000000000000E+11
(PID.TID 0000.0001) %MON vort_r_min                   =  -6.1410058437451E-06
(PID.TID 0000.0001) %MON vort_r_max                   =   6.0662654666006E-06
(PID.TID 0000.0001) %MON vort_a_mean                  =   7.2900000000000E-05
(PID.TID 0000.0001) %MON vort_a_sd                    =   1.4436688199220E-06
(PID.TID 0000.0001) %MON vort_p_mean                  =   7.7363265306123E-05
(PID.TID 0000.0001) %MON vort_p_sd                    =   3.0958152926313E-05
(PID.TID 0000.0001) %MON surfExpan_theta_mean         =   5.2066793092448E-15
(PID.TID 0000.0001) %MON surfExpan_salt_mean          =  -5.1292810414200E-16
(PID.TID 0000.0001) // =======================================================
(PID.TID 0000.0001) // End MONITOR dynamic field statistics
(PID.TID 0000.0001) // =======================================================
 cg2d: Sum(rhs),rhsMax =  -3.72103660817996E-13  7.85139287759824E-04
(PID.TID 0000.0001)                    cg2d_init_res =    6.36131490901480E-02
(PID.TID 0000.0001)                       cg2d_iters =    77
(PID.TID 0000.0001)                         cg2d_res =    7.52123467211293E-12
(PID.TID 0000.0001) // =======================================================
(PID.TID 0000.0001) // Begin MONITOR dynamic field statistics
(PID.TID 0000.0001) // =======================================================
(PID.TID 0000.0001) %MON time_tsnumber                =                    63
(PID.TID 0000.0001) %MON time_secondsf                =   7.5600000000000E+04
(PID.TID 0000.0001) %MON dynstat_eta_max              =   4.0246608754632E-04
(PID.TID 0000.0001) %MON dynstat_eta_min              =  -4.1303942169152E-04
(PID.TID 0000.0001) %MON dynstat_eta_mean             =   4.7432268460157E-17
(PID.TID 0000.0001) %MON dynstat_eta_sd               =   3.7339602682740E-04
(PID.TID 0000.0001) %MON dynstat_eta_del2             =   3.8562453338999E-06
(PID.TID 0000.0001) %MON dynstat_uvel_max             =   1.3722790990578E-02
(PID.TID 0000.0001) %MON dynstat_uvel_min             =  -1.3724363318708E-02
(PID.TID 0000.0001) %MON dynstat_uvel_mean            =  -9.1426606528782E-07
(PID.TID 0000.0001) %MON dynstat_uvel_sd              =   2.6731038103939E-03
(PID.TID 0000.0001) %MON dynstat_uvel_del2            =   1.4151916485309E-04
(PID.TID 0000.0001) %MON dynstat_vvel_max             =   7.5267526435648E-03
(PID.TID 0000.0001) %MON dynstat_vvel_min             =  -7.5246924804451E-03
(PID.TID 0000.0001) %MON dynstat_vvel_mean            =  -1.2312594662898E-10
(PID.TID 0000.0001) %MON dynstat_vvel_sd              =   2.5479974105847E-03
(PID.TID 0000.0001) %MON dynstat_vvel_del2            =   1.0308201548770E-04
(PID.TID 0000.0001) %MON dynstat_wvel_max             =   1.4650962679105E-04
(PID.TID 0000.0001) %MON dynstat_wvel_min             =  -1.4657232967445E-04
(PID.TID 0000.0001) %MON dynstat_wvel_mean            =  -1.3818097816150E-21
(PID.TID 0000.0001) %MON dynstat_wvel_sd              =   4.7860415780712E-05
(PID.TID 0000.0001) %MON dynstat_wvel_del2            =   6.2350815033233E-06
(PID.TID 0000.0001) %MON dynstat_theta_max            =   1.7020391872572E+01
(PID.TID 0000.0001) %MON dynstat_theta_min            =   1.6979608188987E+01
(PID.TID 0000.0001) %MON dynstat_theta_mean           =   1.6999999916872E+01
(PID.TID 0000.0001) %MON dynstat_theta_sd             =   1.8678890926522E-02
(PID.TID 0000.0001) %MON dynstat_theta_del2           =   1.9587286987179E-04
(PID.TID 0000.0001) %MON dynstat_salt_max             =   1.7020387109312E+01
(PID.TID 0000.0001) %MON dynstat_salt_min             =   1.6979612982852E+01
(PID.TID 0000.0001) %MON dynstat_salt_mean            =   1.7000000005832E+01
(PID.TID 0000.0001) %MON dynstat_salt_sd              =   1.8681477008484E-02
(PID.TID 0000.0001) %MON dynstat_salt_del2            =   2.0615760481302E-04
(PID.TID 0000.0001) %MON advcfl_uvel_max              =   1.6469235982450E-02
(PID.TID 0000.0001) %MON advcfl_vvel_max              =   9.0321031722777E-03
(PID.TID 0000.0001) %MON advcfl_wvel_max              =   3.5177359121868E-02
(PID.TID 0000.0001) %MON advcfl_W_hf_max              =   3.5177359121868E-02
(PID.TID 0000.0001) %MON pe_b_mean                    =   3.4193881396582E-09
(PID.TID 0000.0001) %MON ke_max                       =   1.0563207008585E-04
(PID.TID 0000.0001) %MON ke_mean                      =   6.6890419945986E-06
(PID.TID 0000.0001) %MON ke_vol                       =   2.5000000000000E+11
(PID.TID 0000.0001) %MON vort_r_min                   =  -6.0010685871623E-06
(PID.TID 0000.0001) %MON vort_r_max                   =   5.8723356918440E-06
(PID.TID 0000.0001) %MON vort_a_mean                  =   7.2900000000000E-05
(PID.TID 0000.0001) %MON vort_a_sd                    =   1.3999948267602E-06
(PID.TID 0000.0001) %MON vort_p_mean                  =   7.7363265306123E-05
(PID.TID 0000.0001) %MON vort_p_sd                    =   3.0956024738603E-05
(PID.TID 0000.0001) %MON surfExpan_theta_mean         =   2.1846992206522E-14
(PID.TID 0000.0001) %MON surfExpan_salt_mean          =  -1.3902563024785E-16
(PID.TID 0000.0001) // =======================================================
(PID.TID 0000.0001) // End MONITOR dynamic field statistics
(PID.TID 0000.0001) // =======================================================
 cg2d: Sum(rhs),rhsMax =  -2.23354646410046E-13  7.85128629981816E-04
(PID.TID 0000.0001)                    cg2d_init_res =    5.66071333374149E-02
(PID.TID 0000.0001)                       cg2d_iters =    74
(PID.TID 0000.0001)                         cg2d_res =    9.93748672655349E-12
(PID.TID 0000.0001) // =======================================================
(PID.TID 0000.0001) // Begin MONITOR dynamic field statistics
(PID.TID 0000.0001) // =======================================================
(PID.TID 0000.0001) %MON time_tsnumber                =                    64
(PID.TID 0000.0001) %MON time_secondsf                =   7.6800000000000E+04
(PID.TID 0000.0001) %MON dynstat_eta_max              =   4.0246460281224E-04
(PID.TID 0000.0001) %MON dynstat_eta_min              =  -4.1304091045123E-04
(PID.TID 0000.0001) %MON dynstat_eta_mean             =   4.7310884855878E-17
(PID.TID 0000.0001) %MON dynstat_eta_sd               =   3.7340306245770E-04
(PID.TID 0000.0001) %MON dynstat_eta_del2             =   3.8557580884266E-06
(PID.TID 0000.0001) %MON dynstat_uvel_max             =   1.3034064614643E-02
(PID.TID 0000.0001) %MON dynstat_uvel_min             =  -1.3035673350448E-02
(PID.TID 0000.0001) %MON dynstat_uvel_mean            =  -9.1427421367054E-07
(PID.TID 0000.0001) %MON dynstat_uvel_sd              =   2.5030262900564E-03
(PID.TID 0000.0001) %MON dynstat_uvel_del2            =   1.4032126780990E-04
(PID.TID 0000.0001) %MON dynstat_vvel_max             =   6.7809830913032E-03
(PID.TID 0000.0001) %MON dynstat_vvel_min             =  -6.7788838110866E-03
(PID.TID 0000.0001) %MON dynstat_vvel_mean            =  -1.0617922613098E-10
(PID.TID 0000.0001) %MON dynstat_vvel_sd              =   2.3049156573742E-03
(PID.TID 0000.0001) %MON dynstat_vvel_del2            =   1.0270930171655E-04
(PID.TID 0000.0001) %MON dynstat_wvel_max             =   1.3785799930505E-04
(PID.TID 0000.0001) %MON dynstat_wvel_min             =  -1.3792445033869E-04
(PID.TID 0000.0001) %MON dynstat_wvel_mean            =  -6.5892572786489E-22
(PID.TID 0000.0001) %MON dynstat_wvel_sd              =   4.5602782233628E-05
(PID.TID 0000.0001) %MON dynstat_wvel_del2            =   6.2706447786732E-06
(PID.TID 0000.0001) %MON dynstat_theta_max            =   1.7020391872572E+01
(PID.TID 0000.0001) %MON dynstat_theta_min            =   1.6979608188987E+01
(PID.TID 0000.0001) %MON dynstat_theta_mean           =   1.6999999916872E+01
(PID.TID 0000.0001) %MON dynstat_theta_sd             =   1.8678847877912E-02
(PID.TID 0000.0001) %MON dynstat_theta_del2           =   1.9587794376376E-04
(PID.TID 0000.0001) %MON dynstat_salt_max             =   1.7020387109313E+01
(PID.TID 0000.0001) %MON dynstat_salt_min             =   1.6979612982852E+01
(PID.TID 0000.0001) %MON dynstat_salt_mean            =   1.7000000005832E+01
(PID.TID 0000.0001) %MON dynstat_salt_sd              =   1.8681379203012E-02
(PID.TID 0000.0001) %MON dynstat_salt_del2            =   2.0656630453062E-04
(PID.TID 0000.0001) %MON advcfl_uvel_max              =   1.5642808020537E-02
(PID.TID 0000.0001) %MON advcfl_vvel_max              =   8.1371797095638E-03
(PID.TID 0000.0001) %MON advcfl_wvel_max              =   3.3101868081285E-02
(PID.TID 0000.0001) %MON advcfl_W_hf_max              =   3.3101868081285E-02
(PID.TID 0000.0001) %MON pe_b_mean                    =   3.4195169989696E-09
(PID.TID 0000.0001) %MON ke_max                       =   9.2662638938085E-05
(PID.TID 0000.0001) %MON ke_mean                      =   5.6826360923577E-06
(PID.TID 0000.0001) %MON ke_vol                       =   2.5000000000000E+11
(PID.TID 0000.0001) %MON vort_r_min                   =  -5.8781578307830E-06
(PID.TID 0000.0001) %MON vort_r_max                   =   5.7006974669995E-06
(PID.TID 0000.0001) %MON vort_a_mean                  =   7.2900000000001E-05
(PID.TID 0000.0001) %MON vort_a_sd                    =   1.3628336253269E-06
(PID.TID 0000.0001) %MON vort_p_mean                  =   7.7363265306123E-05
(PID.TID 0000.0001) %MON vort_p_sd                    =   3.0954265459904E-05
(PID.TID 0000.0001) %MON surfExpan_theta_mean         =   3.0201695129504E-14
(PID.TID 0000.0001) %MON surfExpan_salt_mean          =  -4.1050177631101E-17
(PID.TID 0000.0001) // =======================================================
(PID.TID 0000.0001) // End MONITOR dynamic field statistics
(PID.TID 0000.0001) // =======================================================
 cg2d: Sum(rhs),rhsMax =  -2.24010046623313E-13  7.84961926254084E-04
(PID.TID 0000.0001)                    cg2d_init_res =    5.08819620222819E-02
(PID.TID 0000.0001)                       cg2d_iters =    73
(PID.TID 0000.0001)                         cg2d_res =    8.11765813484801E-12
(PID.TID 0000.0001) // =======================================================
(PID.TID 0000.0001) // Begin MONITOR dynamic field statistics
(PID.TID 0000.0001) // =======================================================
(PID.TID 0000.0001) %MON time_tsnumber                =                    65
(PID.TID 0000.0001) %MON time_secondsf                =   7.8000000000000E+04
(PID.TID 0000.0001) %MON dynstat_eta_max              =   4.0244848021641E-04
(PID.TID 0000.0001) %MON dynstat_eta_min              =  -4.1305703645533E-04
(PID.TID 0000.0001) %MON dynstat_eta_mean             =   6.6075424677292E-17
(PID.TID 0000.0001) %MON dynstat_eta_sd               =   3.7340921468398E-04
(PID.TID 0000.0001) %MON dynstat_eta_del2             =   3.8551447742128E-06
(PID.TID 0000.0001) %MON dynstat_uvel_max             =   1.2426775214660E-02
(PID.TID 0000.0001) %MON dynstat_uvel_min             =  -1.2428414916675E-02
(PID.TID 0000.0001) %MON dynstat_uvel_mean            =  -9.1428153913509E-07
(PID.TID 0000.0001) %MON dynstat_uvel_sd              =   2.3588247404805E-03
(PID.TID 0000.0001) %MON dynstat_uvel_del2            =   1.3949892192613E-04
(PID.TID 0000.0001) %MON dynstat_vvel_max             =   5.9912588339631E-03
(PID.TID 0000.0001) %MON dynstat_vvel_min             =  -5.9891251959531E-03
(PID.TID 0000.0001) %MON dynstat_vvel_mean            =  -8.9253743231810E-11
(PID.TID 0000.0001) %MON dynstat_vvel_sd              =   2.0492526490431E-03
(PID.TID 0000.0001) %MON dynstat_vvel_del2            =   1.0230431231223E-04
(PID.TID 0000.0001) %MON dynstat_wvel_max             =   1.2858316656905E-04
(PID.TID 0000.0001) %MON dynstat_wvel_min             =  -1.2865297756361E-04
(PID.TID 0000.0001) %MON dynstat_wvel_mean            =  -2.5258420751596E-21
(PID.TID 0000.0001) %MON dynstat_wvel_sd              =   4.3543232299468E-05
(PID.TID 0000.0001) %MON dynstat_wvel_del2            =   6.3102408489078E-06
(PID.TID 0000.0001) %MON dynstat_theta_max            =   1.7020391872572E+01
(PID.TID 0000.0001) %MON dynstat_theta_min            =   1.6979608188987E+01
(PID.TID 0000.0001) %MON dynstat_theta_mean           =   1.6999999916872E+01
(PID.TID 0000.0001) %MON dynstat_theta_sd             =   1.8678810329860E-02
(PID.TID 0000.0001) %MON dynstat_theta_del2           =   1.9589058431106E-04
(PID.TID 0000.0001) %MON dynstat_salt_max             =   1.7020387109313E+01
(PID.TID 0000.0001) %MON dynstat_salt_min             =   1.6979612982852E+01
(PID.TID 0000.0001) %MON dynstat_salt_mean            =   1.7000000005832E+01
(PID.TID 0000.0001) %MON dynstat_salt_sd              =   1.8681267466041E-02
(PID.TID 0000.0001) %MON dynstat_salt_del2            =   2.0702201404497E-04
(PID.TID 0000.0001) %MON advcfl_uvel_max              =   1.4914097900011E-02
(PID.TID 0000.0001) %MON advcfl_vvel_max              =   7.1895106007557E-03
(PID.TID 0000.0001) %MON advcfl_wvel_max              =   3.0876714615267E-02
(PID.TID 0000.0001) %MON advcfl_W_hf_max              =   3.0876714615267E-02
(PID.TID 0000.0001) %MON pe_b_mean                    =   3.4196296805075E-09
(PID.TID 0000.0001) %MON ke_max                       =   8.1796687158381E-05
(PID.TID 0000.0001) %MON ke_mean                      =   4.7977569775199E-06
(PID.TID 0000.0001) %MON ke_vol                       =   2.5000000000000E+11
(PID.TID 0000.0001) %MON vort_r_min                   =  -5.7722239319152E-06
(PID.TID 0000.0001) %MON vort_r_max                   =   5.5518006296220E-06
(PID.TID 0000.0001) %MON vort_a_mean                  =   7.2900000000000E-05
(PID.TID 0000.0001) %MON vort_a_sd                    =   1.3320108857623E-06
(PID.TID 0000.0001) %MON vort_p_mean                  =   7.7363265306123E-05
(PID.TID 0000.0001) %MON vort_p_sd                    =   3.0952842308603E-05
(PID.TID 0000.0001) %MON surfExpan_theta_mean         =   3.2267236859392E-14
(PID.TID 0000.0001) %MON surfExpan_salt_mean          =  -1.6376982278096E-17
(PID.TID 0000.0001) // =======================================================
(PID.TID 0000.0001) // End MONITOR dynamic field statistics
(PID.TID 0000.0001) // =======================================================
 cg2d: Sum(rhs),rhsMax =  -4.42615182786460E-13  7.84700836030873E-04
(PID.TID 0000.0001)                    cg2d_init_res =    4.57670027826579E-02
(PID.TID 0000.0001)                       cg2d_iters =    73
(PID.TID 0000.0001)                         cg2d_res =    6.11852904008375E-12
(PID.TID 0000.0001) // =======================================================
(PID.TID 0000.0001) // Begin MONITOR dynamic field statistics
(PID.TID 0000.0001) // =======================================================
(PID.TID 0000.0001) %MON time_tsnumber                =                    66
(PID.TID 0000.0001) %MON time_secondsf                =   7.9200000000000E+04
(PID.TID 0000.0001) %MON dynstat_eta_max              =   4.0242164993047E-04
(PID.TID 0000.0001) %MON dynstat_eta_min              =  -4.1308387088912E-04
(PID.TID 0000.0001) %MON dynstat_eta_mean             =   5.7073414453379E-17
(PID.TID 0000.0001) %MON dynstat_eta_sd               =   3.7341433539447E-04
(PID.TID 0000.0001) %MON dynstat_eta_del2             =   3.8543824166860E-06
(PID.TID 0000.0001) %MON dynstat_uvel_max             =   1.1903898861885E-02
(PID.TID 0000.0001) %MON dynstat_uvel_min             =  -1.1905563816083E-02
(PID.TID 0000.0001) %MON dynstat_uvel_mean            =  -9.1428788815358E-07
(PID.TID 0000.0001) %MON dynstat_uvel_sd              =   2.2401823931211E-03
(PID.TID 0000.0001) %MON dynstat_uvel_del2            =   1.3899862706978E-04
(PID.TID 0000.0001) %MON dynstat_vvel_max             =   5.4043090773450E-03
(PID.TID 0000.0001) %MON dynstat_vvel_min             =  -5.4065819051391E-03
(PID.TID 0000.0001) %MON dynstat_vvel_mean            =  -7.2602137070175E-11
(PID.TID 0000.0001) %MON dynstat_vvel_sd              =   1.7852085624816E-03
(PID.TID 0000.0001) %MON dynstat_vvel_del2            =   1.0185917777321E-04
(PID.TID 0000.0001) %MON dynstat_wvel_max             =   1.1876388205899E-04
(PID.TID 0000.0001) %MON dynstat_wvel_min             =  -1.1883674787179E-04
(PID.TID 0000.0001) %MON dynstat_wvel_mean            =  -4.3612438313523E-22
(PID.TID 0000.0001) %MON dynstat_wvel_sd              =   4.1798688057304E-05
(PID.TID 0000.0001) %MON dynstat_wvel_del2            =   6.3539207877177E-06
(PID.TID 0000.0001) %MON dynstat_theta_max            =   1.7020391872572E+01
(PID.TID 0000.0001) %MON dynstat_theta_min            =   1.6979608188987E+01
(PID.TID 0000.0001) %MON dynstat_theta_mean           =   1.6999999916872E+01
(PID.TID 0000.0001) %MON dynstat_theta_sd             =   1.8678778527302E-02
(PID.TID 0000.0001) %MON dynstat_theta_del2           =   1.9591134422273E-04
(PID.TID 0000.0001) %MON dynstat_salt_max             =   1.7020387109313E+01
(PID.TID 0000.0001) %MON dynstat_salt_min             =   1.6979612982852E+01
(PID.TID 0000.0001) %MON dynstat_salt_mean            =   1.7000000005832E+01
(PID.TID 0000.0001) %MON dynstat_salt_sd              =   1.8681116647612E-02
(PID.TID 0000.0001) %MON dynstat_salt_del2            =   2.0753680447480E-04
(PID.TID 0000.0001) %MON advcfl_uvel_max              =   1.4286676579299E-02
(PID.TID 0000.0001) %MON advcfl_vvel_max              =   6.4878982861670E-03
(PID.TID 0000.0001) %MON advcfl_wvel_max              =   2.8520819489231E-02
(PID.TID 0000.0001) %MON advcfl_W_hf_max              =   2.8520819489231E-02
(PID.TID 0000.0001) %MON pe_b_mean                    =   3.4197234706603E-09
(PID.TID 0000.0001) %MON ke_max                       =   7.3066376516487E-05
(PID.TID 0000.0001) %MON ke_mean                      =   4.0389544087336E-06
(PID.TID 0000.0001) %MON ke_vol                       =   2.5000000000000E+11
(PID.TID 0000.0001) %MON vort_r_min                   =  -5.6831373216820E-06
(PID.TID 0000.0001) %MON vort_r_max                   =   5.4259704412954E-06
(PID.TID 0000.0001) %MON vort_a_mean                  =   7.2900000000001E-05
(PID.TID 0000.0001) %MON vort_a_sd                    =   1.3072730988557E-06
(PID.TID 0000.0001) %MON vort_p_mean                  =   7.7363265306123E-05
(PID.TID 0000.0001) %MON vort_p_sd                    =   3.0951723884361E-05
(PID.TID 0000.0001) %MON surfExpan_theta_mean         =   2.8890036751875E-14
(PID.TID 0000.0001) %MON surfExpan_salt_mean          =  -2.4908957329658E-18
(PID.TID 0000.0001) // =======================================================
(PID.TID 0000.0001) // End MONITOR dynamic field statistics
(PID.TID 0000.0001) // =======================================================
 cg2d: Sum(rhs),rhsMax =  -3.27393765309908E-13  7.84315729725287E-04
(PID.TID 0000.0001)                    cg2d_init_res =    4.11594311809816E-02
(PID.TID 0000.0001)                       cg2d_iters =    73
(PID.TID 0000.0001)                         cg2d_res =    6.32879549220212E-12
(PID.TID 0000.0001) // =======================================================
(PID.TID 0000.0001) // Begin MONITOR dynamic field statistics
(PID.TID 0000.0001) // =======================================================
(PID.TID 0000.0001) %MON time_tsnumber                =                    67
(PID.TID 0000.0001) %MON time_secondsf                =   8.0400000000000E+04
(PID.TID 0000.0001) %MON dynstat_eta_max              =   4.0238772185970E-04
(PID.TID 0000.0001) %MON dynstat_eta_min              =  -4.1311780470724E-04
(PID.TID 0000.0001) %MON dynstat_eta_mean             =   4.9927539792494E-17
(PID.TID 0000.0001) %MON dynstat_eta_sd               =   3.7341829972691E-04
(PID.TID 0000.0001) %MON dynstat_eta_del2             =   3.8534612844990E-06
(PID.TID 0000.0001) %MON dynstat_uvel_max             =   1.1467789198098E-02
(PID.TID 0000.0001) %MON dynstat_uvel_min             =  -1.1469473689938E-02
(PID.TID 0000.0001) %MON dynstat_uvel_mean            =  -9.1429314625309E-07
(PID.TID 0000.0001) %MON dynstat_uvel_sd              =   2.1461134448849E-03
(PID.TID 0000.0001) %MON dynstat_uvel_del2            =   1.3880658661870E-04
(PID.TID 0000.0001) %MON dynstat_vvel_max             =   4.8215175957907E-03
(PID.TID 0000.0001) %MON dynstat_vvel_min             =  -4.8239027105725E-03
(PID.TID 0000.0001) %MON dynstat_vvel_mean            =  -5.6223510398711E-11
(PID.TID 0000.0001) %MON dynstat_vvel_sd              =   1.5185915426568E-03
(PID.TID 0000.0001) %MON dynstat_vvel_del2            =   1.0133472960541E-04
(PID.TID 0000.0001) %MON dynstat_wvel_max             =   1.1019274565352E-04
(PID.TID 0000.0001) %MON dynstat_wvel_min             =  -1.1024510837150E-04
(PID.TID 0000.0001) %MON dynstat_wvel_mean            =   1.8047559276454E-21
(PID.TID 0000.0001) %MON dynstat_wvel_sd              =   4.0485761539782E-05
(PID.TID 0000.0001) %MON dynstat_wvel_del2            =   6.4008953080383E-06
(PID.TID 0000.0001) %MON dynstat_theta_max            =   1.7020391872572E+01
(PID.TID 0000.0001) %MON dynstat_theta_min            =   1.6979608188987E+01
(PID.TID 0000.0001) %MON dynstat_theta_mean           =   1.6999999916871E+01
(PID.TID 0000.0001) %MON dynstat_theta_sd             =   1.8678752681116E-02
(PID.TID 0000.0001) %MON dynstat_theta_del2           =   1.9594049705184E-04
(PID.TID 0000.0001) %MON dynstat_salt_max             =   1.7020387109313E+01
(PID.TID 0000.0001) %MON dynstat_salt_min             =   1.6979612982852E+01
(PID.TID 0000.0001) %MON dynstat_salt_mean            =   1.7000000005832E+01
(PID.TID 0000.0001) %MON dynstat_salt_sd              =   1.8680920115884E-02
(PID.TID 0000.0001) %MON dynstat_salt_del2            =   2.0814309585168E-04
(PID.TID 0000.0001) %MON advcfl_uvel_max              =   1.3763368427926E-02
(PID.TID 0000.0001) %MON advcfl_vvel_max              =   5.7886832526870E-03
(PID.TID 0000.0001) %MON advcfl_wvel_max              =   2.6458826009160E-02
(PID.TID 0000.0001) %MON advcfl_W_hf_max              =   2.6458826009160E-02
(PID.TID 0000.0001) %MON pe_b_mean                    =   3.4197960816523E-09
(PID.TID 0000.0001) %MON ke_max                       =   6.6487166056985E-05
(PID.TID 0000.0001) %MON ke_mean                      =   3.4098396083696E-06
(PID.TID 0000.0001) %MON ke_vol                       =   2.5000000000000E+11
(PID.TID 0000.0001) %MON vort_r_min                   =  -5.6106939696706E-06
(PID.TID 0000.0001) %MON vort_r_max                   =   5.3234042659028E-06
(PID.TID 0000.0001) %MON vort_a_mean                  =   7.2900000000000E-05
(PID.TID 0000.0001) %MON vort_a_sd                    =   1.2883081373660E-06
(PID.TID 0000.0001) %MON vort_p_mean                  =   7.7363265306123E-05
(PID.TID 0000.0001) %MON vort_p_sd                    =   3.0950880960699E-05
(PID.TID 0000.0001) %MON surfExpan_theta_mean         =   2.0876176967619E-14
(PID.TID 0000.0001) %MON surfExpan_salt_mean          =  -1.0649839556705E-17
(PID.TID 0000.0001) // =======================================================
(PID.TID 0000.0001) // End MONITOR dynamic field statistics
(PID.TID 0000.0001) // =======================================================
 cg2d: Sum(rhs),rhsMax =  -3.61021650942261E-13  7.83886069850298E-04
(PID.TID 0000.0001)                    cg2d_init_res =    3.69599559680153E-02
(PID.TID 0000.0001)                       cg2d_iters =    73
(PID.TID 0000.0001)                         cg2d_res =    5.06079591927808E-12
(PID.TID 0000.0001) // =======================================================
(PID.TID 0000.0001) // Begin MONITOR dynamic field statistics
(PID.TID 0000.0001) // =======================================================
(PID.TID 0000.0001) %MON time_tsnumber                =                    68
(PID.TID 0000.0001) %MON time_secondsf                =   8.1600000000000E+04
(PID.TID 0000.0001) %MON dynstat_eta_max              =   4.0235023765941E-04
(PID.TID 0000.0001) %MON dynstat_eta_min              =  -4.1315529596120E-04
(PID.TID 0000.0001) %MON dynstat_eta_mean             =   6.5170576681317E-17
(PID.TID 0000.0001) %MON dynstat_eta_sd               =   3.7342100227646E-04
(PID.TID 0000.0001) %MON dynstat_eta_del2             =   3.8523613533823E-06
(PID.TID 0000.0001) %MON dynstat_uvel_max             =   1.1120164396621E-02
(PID.TID 0000.0001) %MON dynstat_uvel_min             =  -1.1121862639030E-02
(PID.TID 0000.0001) %MON dynstat_uvel_mean            =  -9.1429723036379E-07
(PID.TID 0000.0001) %MON dynstat_uvel_sd              =   2.0750856523307E-03
(PID.TID 0000.0001) %MON dynstat_uvel_del2            =   1.3884363135631E-04
(PID.TID 0000.0001) %MON dynstat_vvel_max             =   4.2139522743825E-03
(PID.TID 0000.0001) %MON dynstat_vvel_min             =  -4.2164517515438E-03
(PID.TID 0000.0001) %MON dynstat_vvel_mean            =  -4.0109699684341E-11
(PID.TID 0000.0001) %MON dynstat_vvel_sd              =   1.2583620630773E-03
(PID.TID 0000.0001) %MON dynstat_vvel_del2            =   1.0083414560098E-04
(PID.TID 0000.0001) %MON dynstat_wvel_max             =   1.1870263512937E-04
(PID.TID 0000.0001) %MON dynstat_wvel_min             =  -1.1875500121949E-04
(PID.TID 0000.0001) %MON dynstat_wvel_mean            =  -8.8832854998124E-22
(PID.TID 0000.0001) %MON dynstat_wvel_sd              =   3.9707361521172E-05
(PID.TID 0000.0001) %MON dynstat_wvel_del2            =   6.4504362998728E-06
(PID.TID 0000.0001) %MON dynstat_theta_max            =   1.7020391872572E+01
(PID.TID 0000.0001) %MON dynstat_theta_min            =   1.6979608188987E+01
(PID.TID 0000.0001) %MON dynstat_theta_mean           =   1.6999999916871E+01
(PID.TID 0000.0001) %MON dynstat_theta_sd             =   1.8678732167691E-02
(PID.TID 0000.0001) %MON dynstat_theta_del2           =   1.9597664025809E-04
(PID.TID 0000.0001) %MON dynstat_salt_max             =   1.7020387109313E+01
(PID.TID 0000.0001) %MON dynstat_salt_min             =   1.6979612982852E+01
(PID.TID 0000.0001) %MON dynstat_salt_mean            =   1.7000000005832E+01
(PID.TID 0000.0001) %MON dynstat_salt_sd              =   1.8680670346584E-02
(PID.TID 0000.0001) %MON dynstat_salt_del2            =   2.0887069499260E-04
(PID.TID 0000.0001) %MON advcfl_uvel_max              =   1.3346235166836E-02
(PID.TID 0000.0001) %MON advcfl_vvel_max              =   5.0597421018526E-03
(PID.TID 0000.0001) %MON advcfl_wvel_max              =   2.8501200292676E-02
(PID.TID 0000.0001) %MON advcfl_W_hf_max              =   2.8501200292676E-02
(PID.TID 0000.0001) %MON pe_b_mean                    =   3.4198455821818E-09
(PID.TID 0000.0001) %MON ke_max                       =   6.2062006178781E-05
(PID.TID 0000.0001) %MON ke_mean                      =   2.9130586894843E-06
(PID.TID 0000.0001) %MON ke_vol                       =   2.5000000000000E+11
(PID.TID 0000.0001) %MON vort_r_min                   =  -5.5546201217608E-06
(PID.TID 0000.0001) %MON vort_r_max                   =   5.2441663752502E-06
(PID.TID 0000.0001) %MON vort_a_mean                  =   7.2900000000000E-05
(PID.TID 0000.0001) %MON vort_a_sd                    =   1.2747695069058E-06
(PID.TID 0000.0001) %MON vort_p_mean                  =   7.7363265306122E-05
(PID.TID 0000.0001) %MON vort_p_sd                    =   3.0950287165263E-05
(PID.TID 0000.0001) %MON surfExpan_theta_mean         =   9.1609593730990E-15
(PID.TID 0000.0001) %MON surfExpan_salt_mean          =   4.6316826182878E-18
(PID.TID 0000.0001) // =======================================================
(PID.TID 0000.0001) // End MONITOR dynamic field statistics
(PID.TID 0000.0001) // =======================================================
 cg2d: Sum(rhs),rhsMax =  -3.76714935287903E-13  7.83396893656034E-04
(PID.TID 0000.0001)                    cg2d_init_res =    3.34673629365433E-02
(PID.TID 0000.0001)                       cg2d_iters =    73
(PID.TID 0000.0001)                         cg2d_res =    5.81414724559099E-12
(PID.TID 0000.0001) // =======================================================
(PID.TID 0000.0001) // Begin MONITOR dynamic field statistics
(PID.TID 0000.0001) // =======================================================
(PID.TID 0000.0001) %MON time_tsnumber                =                    69
(PID.TID 0000.0001) %MON time_secondsf                =   8.2800000000000E+04
(PID.TID 0000.0001) %MON dynstat_eta_max              =   4.0231199689567E-04
(PID.TID 0000.0001) %MON dynstat_eta_min              =  -4.1319354571869E-04
(PID.TID 0000.0001) %MON dynstat_eta_mean             =   6.2432261150325E-17
(PID.TID 0000.0001) %MON dynstat_eta_sd               =   3.7342234208174E-04
(PID.TID 0000.0001) %MON dynstat_eta_del2             =   3.8510488618422E-06
(PID.TID 0000.0001) %MON dynstat_uvel_max             =   1.0862098291620E-02
(PID.TID 0000.0001) %MON dynstat_uvel_min             =  -1.0863804513379E-02
(PID.TID 0000.0001) %MON dynstat_uvel_mean            =  -9.1430008519593E-07
(PID.TID 0000.0001) %MON dynstat_uvel_sd              =   2.0252421670388E-03
(PID.TID 0000.0001) %MON dynstat_uvel_del2            =   1.3911164303433E-04
(PID.TID 0000.0001) %MON dynstat_vvel_max             =   3.5864271151232E-03
(PID.TID 0000.0001) %MON dynstat_vvel_min             =  -3.5890411612408E-03
(PID.TID 0000.0001) %MON dynstat_vvel_mean            =  -2.4070375498812E-11
(PID.TID 0000.0001) %MON dynstat_vvel_sd              =   1.0200919446203E-03
(PID.TID 0000.0001) %MON dynstat_vvel_del2            =   1.0040978913434E-04
(PID.TID 0000.0001) %MON dynstat_wvel_max             =   1.2711257262813E-04
(PID.TID 0000.0001) %MON dynstat_wvel_min             =  -1.2716502350279E-04
(PID.TID 0000.0001) %MON dynstat_wvel_mean            =  -1.0590465364014E-21
(PID.TID 0000.0001) %MON dynstat_wvel_sd              =   3.9537273921632E-05
(PID.TID 0000.0001) %MON dynstat_wvel_del2            =   6.5009215327795E-06
(PID.TID 0000.0001) %MON dynstat_theta_max            =   1.7020391872572E+01
(PID.TID 0000.0001) %MON dynstat_theta_min            =   1.6979608188987E+01
(PID.TID 0000.0001) %MON dynstat_theta_mean           =   1.6999999916872E+01
(PID.TID 0000.0001) %MON dynstat_theta_sd             =   1.8678714862760E-02
(PID.TID 0000.0001) %MON dynstat_theta_del2           =   1.9601597250256E-04
(PID.TID 0000.0001) %MON dynstat_salt_max             =   1.7020387109313E+01
(PID.TID 0000.0001) %MON dynstat_salt_min             =   1.6979612982851E+01
(PID.TID 0000.0001) %MON dynstat_salt_mean            =   1.7000000005832E+01
(PID.TID 0000.0001) %MON dynstat_salt_sd              =   1.8680359410079E-02
(PID.TID 0000.0001) %MON dynstat_salt_del2            =   2.0973051380847E-04
(PID.TID 0000.0001) %MON advcfl_uvel_max              =   1.3036565416055E-02
(PID.TID 0000.0001) %MON advcfl_vvel_max              =   4.3068493934889E-03
(PID.TID 0000.0001) %MON advcfl_wvel_max              =   3.0519605640670E-02
(PID.TID 0000.0001) %MON advcfl_W_hf_max              =   3.0519605640670E-02
(PID.TID 0000.0001) %MON pe_b_mean                    =   3.4198701225015E-09
(PID.TID 0000.0001) %MON ke_max                       =   5.9778596384441E-05
(PID.TID 0000.0001) %MON ke_mean                      =   2.5502853717783E-06
(PID.TID 0000.0001) %MON ke_vol                       =   2.5000000000000E+11
(PID.TID 0000.0001) %MON vort_r_min                   =  -5.5145978223898E-06
(PID.TID 0000.0001) %MON vort_r_max                   =   5.1881878919692E-06
(PID.TID 0000.0001) %MON vort_a_mean                  =   7.2900000000000E-05
(PID.TID 0000.0001) %MON vort_a_sd                    =   1.2663001594863E-06
(PID.TID 0000.0001) %MON vort_p_mean                  =   7.7363265306122E-05
(PID.TID 0000.0001) %MON vort_p_sd                    =   3.0949919465072E-05
(PID.TID 0000.0001) %MON surfExpan_theta_mean         =  -5.7382950079942E-15
(PID.TID 0000.0001) %MON surfExpan_salt_mean          =  -1.4873280413009E-17
(PID.TID 0000.0001) // =======================================================
(PID.TID 0000.0001) // End MONITOR dynamic field statistics
(PID.TID 0000.0001) // =======================================================
 cg2d: Sum(rhs),rhsMax =  -4.47036938716616E-13  7.82995329566206E-04
(PID.TID 0000.0001)                    cg2d_init_res =    3.04890833292753E-02
(PID.TID 0000.0001)                       cg2d_iters =    72
(PID.TID 0000.0001)                         cg2d_res =    9.47256715803274E-12
(PID.TID 0000.0001) // =======================================================
(PID.TID 0000.0001) // Begin MONITOR dynamic field statistics
(PID.TID 0000.0001) // =======================================================
(PID.TID 0000.0001) %MON time_tsnumber                =                    70
(PID.TID 0000.0001) %MON time_secondsf                =   8.4000000000000E+04
(PID.TID 0000.0001) %MON dynstat_eta_max              =   4.0227571076064E-04
(PID.TID 0000.0001) %MON dynstat_eta_min              =  -4.1322984233034E-04
(PID.TID 0000.0001) %MON dynstat_eta_mean             =   6.9714342273430E-17
(PID.TID 0000.0001) %MON dynstat_eta_sd               =   3.7342220143238E-04
(PID.TID 0000.0001) %MON dynstat_eta_del2             =   3.8494504588251E-06
(PID.TID 0000.0001) %MON dynstat_uvel_max             =   1.0694016033856E-02
(PID.TID 0000.0001) %MON dynstat_uvel_min             =  -1.0695724520517E-02
(PID.TID 0000.0001) %MON dynstat_uvel_mean            =  -9.1430165920697E-07
(PID.TID 0000.0001) %MON dynstat_uvel_sd              =   1.9946883081492E-03
(PID.TID 0000.0001) %MON dynstat_uvel_del2            =   1.3955631949066E-04
(PID.TID 0000.0001) %MON dynstat_vvel_max             =   2.9494038194678E-03
(PID.TID 0000.0001) %MON dynstat_vvel_min             =  -2.9520130474483E-03
(PID.TID 0000.0001) %MON dynstat_vvel_mean            =  -7.7840652660294E-12
(PID.TID 0000.0001) %MON dynstat_vvel_sd              =   8.3268563429303E-04
(PID.TID 0000.0001) %MON dynstat_vvel_del2            =   9.9986107257779E-05
(PID.TID 0000.0001) %MON dynstat_wvel_max             =   1.3536523307045E-04
(PID.TID 0000.0001) %MON dynstat_wvel_min             =  -1.3541767462772E-04
(PID.TID 0000.0001) %MON dynstat_wvel_mean            =   7.5141732665767E-23
(PID.TID 0000.0001) %MON dynstat_wvel_sd              =   4.0005458502899E-05
(PID.TID 0000.0001) %MON dynstat_wvel_del2            =   6.5514798622142E-06
(PID.TID 0000.0001) %MON dynstat_theta_max            =   1.7020391872572E+01
(PID.TID 0000.0001) %MON dynstat_theta_min            =   1.6979608188987E+01
(PID.TID 0000.0001) %MON dynstat_theta_mean           =   1.6999999916872E+01
(PID.TID 0000.0001) %MON dynstat_theta_sd             =   1.8678694573256E-02
(PID.TID 0000.0001) %MON dynstat_theta_del2           =   1.9605289855313E-04
(PID.TID 0000.0001) %MON dynstat_salt_max             =   1.7020387109313E+01
(PID.TID 0000.0001) %MON dynstat_salt_min             =   1.6979612982851E+01
(PID.TID 0000.0001) %MON dynstat_salt_mean            =   1.7000000005832E+01
(PID.TID 0000.0001) %MON dynstat_salt_sd              =   1.8679979329080E-02
(PID.TID 0000.0001) %MON dynstat_salt_del2            =   2.1073480804767E-04
(PID.TID 0000.0001) %MON advcfl_uvel_max              =   1.2834869424621E-02
(PID.TID 0000.0001) %MON advcfl_vvel_max              =   3.5424156569380E-03
(PID.TID 0000.0001) %MON advcfl_wvel_max              =   3.2500241910653E-02
(PID.TID 0000.0001) %MON advcfl_W_hf_max              =   3.2500241910653E-02
(PID.TID 0000.0001) %MON pe_b_mean                    =   3.4198675463169E-09
(PID.TID 0000.0001) %MON ke_max                       =   5.9610369373893E-05
(PID.TID 0000.0001) %MON ke_mean                      =   2.3222065167752E-06
(PID.TID 0000.0001) %MON ke_vol                       =   2.5000000000000E+11
(PID.TID 0000.0001) %MON vort_r_min                   =  -5.4902003464233E-06
(PID.TID 0000.0001) %MON vort_r_max                   =   5.1552633649970E-06
(PID.TID 0000.0001) %MON vort_a_mean                  =   7.2900000000000E-05
(PID.TID 0000.0001) %MON vort_a_sd                    =   1.2625562143328E-06
(PID.TID 0000.0001) %MON vort_p_mean                  =   7.7363265306123E-05
(PID.TID 0000.0001) %MON vort_p_sd                    =   3.0949758577929E-05
(PID.TID 0000.0001) %MON surfExpan_theta_mean         =  -2.3455522548745E-14
(PID.TID 0000.0001) %MON surfExpan_salt_mean          =   5.0776645399200E-18
(PID.TID 0000.0001) // =======================================================
(PID.TID 0000.0001) // End MONITOR dynamic field statistics
(PID.TID 0000.0001) // =======================================================
 cg2d: Sum(rhs),rhsMax =  -4.34034915213627E-13  7.82731157646348E-04
(PID.TID 0000.0001)                    cg2d_init_res =    2.87437428080370E-02
(PID.TID 0000.0001)                       cg2d_iters =    73
(PID.TID 0000.0001)                         cg2d_res =    5.83923758592688E-12
(PID.TID 0000.0001) // =======================================================
(PID.TID 0000.0001) // Begin MONITOR dynamic field statistics
(PID.TID 0000.0001) // =======================================================
(PID.TID 0000.0001) %MON time_tsnumber                =                    71
(PID.TID 0000.0001) %MON time_secondsf                =   8.5200000000000E+04
(PID.TID 0000.0001) %MON dynstat_eta_max              =   4.0224322714078E-04
(PID.TID 0000.0001) %MON dynstat_eta_min              =  -4.1326233941084E-04
(PID.TID 0000.0001) %MON dynstat_eta_mean             =   7.5135140690796E-17
(PID.TID 0000.0001) %MON dynstat_eta_sd               =   3.7342040976356E-04
(PID.TID 0000.0001) %MON dynstat_eta_del2             =   3.8474826613282E-06
(PID.TID 0000.0001) %MON dynstat_uvel_max             =   1.0615693653511E-02
(PID.TID 0000.0001) %MON dynstat_uvel_min             =  -1.0617398856205E-02
(PID.TID 0000.0001) %MON dynstat_uvel_mean            =  -9.1430188579976E-07
(PID.TID 0000.0001) %MON dynstat_uvel_sd              =   1.9817803602310E-03
(PID.TID 0000.0001) %MON dynstat_uvel_del2            =   1.4015214408618E-04
(PID.TID 0000.0001) %MON dynstat_vvel_max             =   3.7806043852091E-03
(PID.TID 0000.0001) %MON dynstat_vvel_min             =  -3.7796544878537E-03
(PID.TID 0000.0001) %MON dynstat_vvel_mean            =   9.5495848381207E-12
(PID.TID 0000.0001) %MON dynstat_vvel_sd              =   7.4275345087668E-04
(PID.TID 0000.0001) %MON dynstat_vvel_del2            =   9.9699493446334E-05
(PID.TID 0000.0001) %MON dynstat_wvel_max             =   1.4339545093867E-04
(PID.TID 0000.0001) %MON dynstat_wvel_min             =  -1.4344795639719E-04
(PID.TID 0000.0001) %MON dynstat_wvel_mean            =  -9.2121998451167E-23
(PID.TID 0000.0001) %MON dynstat_wvel_sd              =   4.1093330925299E-05
(PID.TID 0000.0001) %MON dynstat_wvel_del2            =   6.6011812915910E-06
(PID.TID 0000.0001) %MON dynstat_theta_max            =   1.7020391872572E+01
(PID.TID 0000.0001) %MON dynstat_theta_min            =   1.6979608188987E+01
(PID.TID 0000.0001) %MON dynstat_theta_mean           =   1.6999999916872E+01
(PID.TID 0000.0001) %MON dynstat_theta_sd             =   1.8678666352190E-02
(PID.TID 0000.0001) %MON dynstat_theta_del2           =   1.9608335621196E-04
(PID.TID 0000.0001) %MON dynstat_salt_max             =   1.7020387109313E+01
(PID.TID 0000.0001) %MON dynstat_salt_min             =   1.6979612982852E+01
(PID.TID 0000.0001) %MON dynstat_salt_mean            =   1.7000000005832E+01
(PID.TID 0000.0001) %MON dynstat_salt_sd              =   1.8679524127312E-02
(PID.TID 0000.0001) %MON dynstat_salt_del2            =   2.1190101375974E-04
(PID.TID 0000.0001) %MON advcfl_uvel_max              =   1.2740878627446E-02
(PID.TID 0000.0001) %MON advcfl_vvel_max              =   4.5367252622509E-03
(PID.TID 0000.0001) %MON advcfl_wvel_max              =   3.4427509535326E-02
(PID.TID 0000.0001) %MON advcfl_W_hf_max              =   3.4427509535326E-02
(PID.TID 0000.0001) %MON pe_b_mean                    =   3.4198347295463E-09
(PID.TID 0000.0001) %MON ke_max                       =   6.1515060101292E-05
(PID.TID 0000.0001) %MON ke_mean                      =   2.2285348066915E-06
(PID.TID 0000.0001) %MON ke_vol                       =   2.5000000000000E+11
(PID.TID 0000.0001) %MON vort_r_min                   =  -5.4809381227108E-06
(PID.TID 0000.0001) %MON vort_r_max                   =   5.1450520053374E-06
(PID.TID 0000.0001) %MON vort_a_mean                  =   7.2899999999999E-05
(PID.TID 0000.0001) %MON vort_a_sd                    =   1.2632242085145E-06
(PID.TID 0000.0001) %MON vort_p_mean                  =   7.7363265306122E-05
(PID.TID 0000.0001) %MON vort_p_sd                    =   3.0949789124098E-05
(PID.TID 0000.0001) %MON surfExpan_theta_mean         =  -4.4297425936553E-14
(PID.TID 0000.0001) %MON surfExpan_salt_mean          =  -2.5064824698567E-17
(PID.TID 0000.0001) // =======================================================
(PID.TID 0000.0001) // End MONITOR dynamic field statistics
(PID.TID 0000.0001) // =======================================================
 cg2d: Sum(rhs),rhsMax =  -4.40430894879662E-13  7.82756135719351E-04
(PID.TID 0000.0001)                    cg2d_init_res =    2.82370020079910E-02
(PID.TID 0000.0001)                       cg2d_iters =    73
(PID.TID 0000.0001)                         cg2d_res =    6.23423019700596E-12
(PID.TID 0000.0001) // =======================================================
(PID.TID 0000.0001) // Begin MONITOR dynamic field statistics
(PID.TID 0000.0001) // =======================================================
(PID.TID 0000.0001) %MON time_tsnumber                =                    72
(PID.TID 0000.0001) %MON time_secondsf                =   8.6400000000000E+04
(PID.TID 0000.0001) %MON dynstat_eta_max              =   4.0221609547578E-04
(PID.TID 0000.0001) %MON dynstat_eta_min              =  -4.1328948465389E-04
(PID.TID 0000.0001) %MON dynstat_eta_mean             =   8.6884073987603E-17
(PID.TID 0000.0001) %MON dynstat_eta_sd               =   3.7341683611951E-04
(PID.TID 0000.0001) %MON dynstat_eta_del2             =   3.8451275564060E-06
(PID.TID 0000.0001) %MON dynstat_uvel_max             =   1.0626260474410E-02
(PID.TID 0000.0001) %MON dynstat_uvel_min             =  -1.0627957183146E-02
(PID.TID 0000.0001) %MON dynstat_uvel_mean            =  -9.1430063138684E-07
(PID.TID 0000.0001) %MON dynstat_uvel_sd              =   1.9853598514233E-03
(PID.TID 0000.0001) %MON dynstat_uvel_del2            =   1.4087727117257E-04
(PID.TID 0000.0001) %MON dynstat_vvel_max             =   4.8125643386142E-03
(PID.TID 0000.0001) %MON dynstat_vvel_min             =  -4.8116160974244E-03
(PID.TID 0000.0001) %MON dynstat_vvel_mean            =   2.7858311024341E-11
(PID.TID 0000.0001) %MON dynstat_vvel_sd              =   7.8685703266610E-04
(PID.TID 0000.0001) %MON dynstat_vvel_del2            =   9.9710844839834E-05
(PID.TID 0000.0001) %MON dynstat_wvel_max             =   1.5113671170501E-04
(PID.TID 0000.0001) %MON dynstat_wvel_min             =  -1.5119052842465E-04
(PID.TID 0000.0001) %MON dynstat_wvel_mean            =   4.1460682440501E-25
(PID.TID 0000.0001) %MON dynstat_wvel_sd              =   4.2739157211974E-05
(PID.TID 0000.0001) %MON dynstat_wvel_del2            =   6.6492536044533E-06
(PID.TID 0000.0001) %MON dynstat_theta_max            =   1.7020391872572E+01
(PID.TID 0000.0001) %MON dynstat_theta_min            =   1.6979608188987E+01
(PID.TID 0000.0001) %MON dynstat_theta_mean           =   1.6999999916872E+01
(PID.TID 0000.0001) %MON dynstat_theta_sd             =   1.8678628473077E-02
(PID.TID 0000.0001) %MON dynstat_theta_del2           =   1.9610726544258E-04
(PID.TID 0000.0001) %MON dynstat_salt_max             =   1.7020387109312E+01
(PID.TID 0000.0001) %MON dynstat_salt_min             =   1.6979612982851E+01
(PID.TID 0000.0001) %MON dynstat_salt_mean            =   1.7000000005832E+01
(PID.TID 0000.0001) %MON dynstat_salt_sd              =   1.8679263254107E-02
(PID.TID 0000.0001) %MON dynstat_salt_del2            =   2.1270919795679E-04
(PID.TID 0000.0001) %MON advcfl_uvel_max              =   1.2753548619775E-02
(PID.TID 0000.0001) %MON advcfl_vvel_max              =   5.7750772063371E-03
(PID.TID 0000.0001) %MON advcfl_wvel_max              =   3.6285726821916E-02
(PID.TID 0000.0001) %MON advcfl_W_hf_max              =   3.6285726821916E-02
(PID.TID 0000.0001) %MON pe_b_mean                    =   3.4197692740263E-09
(PID.TID 0000.0001) %MON ke_max                       =   6.5433529486449E-05
(PID.TID 0000.0001) %MON ke_mean                      =   2.2680164029254E-06
(PID.TID 0000.0001) %MON ke_vol                       =   2.5000000000000E+11
(PID.TID 0000.0001) %MON vort_r_min                   =  -5.4862699146214E-06
(PID.TID 0000.0001) %MON vort_r_max                   =   5.1570815142718E-06
(PID.TID 0000.0001) %MON vort_a_mean                  =   7.2900000000000E-05
(PID.TID 0000.0001) %MON vort_a_sd                    =   1.2680350116794E-06
(PID.TID 0000.0001) %MON vort_p_mean                  =   7.7363265306123E-05
(PID.TID 0000.0001) %MON vort_p_sd                    =   3.0949999719862E-05
(PID.TID 0000.0001) %MON surfExpan_theta_mean         =  -6.7084259241373E-14
(PID.TID 0000.0001) %MON surfExpan_salt_mean          =  -2.9884712569278E-18
(PID.TID 0000.0001) // =======================================================
(PID.TID 0000.0001) // End MONITOR dynamic field statistics
(PID.TID 0000.0001) // =======================================================
 Computing Diagnostic # 267  UVELSLT      Counter:   36      Parms: UU   268MR      
           Vector  Mate for  UVELSLT      Diagnostic # 268  VVELSLT  exists 
 Computing Diagnostic # 268  VVELSLT      Counter:   36      Parms: VV   267MR      
           Vector  Mate for  VVELSLT      Diagnostic # 267  UVELSLT  exists 
 Computing Diagnostic # 269  WVELSLT      Counter:   36      Parms: WM      LR      
 Computing Diagnostic # 264  UVELTH       Counter:   36      Parms: UU   265MR      
           Vector  Mate for  UVELTH       Diagnostic # 265  VVELTH   exists 
 Computing Diagnostic # 265  VVELTH       Counter:   36      Parms: VV   264MR      
           Vector  Mate for  VVELTH       Diagnostic # 264  UVELTH   exists 
 Computing Diagnostic # 266  WVELTH       Counter:   36      Parms: WM      LR      
(PID.TID 0000.0001) %CHECKPOINT        72 0000000072
(PID.TID 0000.0001)   Seconds in section "ALL                    [THE_MODEL_MAIN]":
(PID.TID 0000.0001)           User time: 8.14999984763562679
(PID.TID 0000.0001)         System time: 2.34999989531934261
(PID.TID 0000.0001)     Wall clock time: 10.8735311031341553
(PID.TID 0000.0001)          No. starts: 1
(PID.TID 0000.0001)           No. stops: 1
(PID.TID 0000.0001)   Seconds in section "INITIALISE_FIXED       [THE_MODEL_MAIN]":
(PID.TID 0000.0001)           User time: 0.199999993667006493
(PID.TID 0000.0001)         System time: 0.220000004395842552
(PID.TID 0000.0001)     Wall clock time: 0.434595108032226562
(PID.TID 0000.0001)          No. starts: 1
(PID.TID 0000.0001)           No. stops: 1
(PID.TID 0000.0001)   Seconds in section "THE_MAIN_LOOP          [THE_MODEL_MAIN]":
(PID.TID 0000.0001)           User time: 7.94999985396862030
(PID.TID 0000.0001)         System time: 2.12999989092350006
(PID.TID 0000.0001)     Wall clock time: 10.4387328624725342
(PID.TID 0000.0001)          No. starts: 1
(PID.TID 0000.0001)           No. stops: 1
(PID.TID 0000.0001)   Seconds in section "INITIALISE_VARIA    [THE_MAIN_LOOP]":
(PID.TID 0000.0001)           User time: 0.300000011920928955E-01
(PID.TID 0000.0001)         System time: 0.899999886751174927E-01
(PID.TID 0000.0001)     Wall clock time: 0.116447210311889648
(PID.TID 0000.0001)          No. starts: 1
(PID.TID 0000.0001)           No. stops: 1
(PID.TID 0000.0001)   Seconds in section "MONITOR             [THE_MAIN_LOOP]":
(PID.TID 0000.0001)           User time: 0.100000053644180298E-01
(PID.TID 0000.0001)         System time: 0.000000000000000000E+00
(PID.TID 0000.0001)     Wall clock time: 0.130949020385742188E-01
(PID.TID 0000.0001)          No. starts: 1
(PID.TID 0000.0001)           No. stops: 1
(PID.TID 0000.0001)   Seconds in section "DO_THE_MODEL_IO     [THE_MAIN_LOOP]":
(PID.TID 0000.0001)           User time: 0.200000107288360596E-01
(PID.TID 0000.0001)         System time: 0.500000119209289551E-01
(PID.TID 0000.0001)     Wall clock time: 0.700120925903320312E-01
(PID.TID 0000.0001)          No. starts: 1
(PID.TID 0000.0001)           No. stops: 1
(PID.TID 0000.0001)   Seconds in section "MAIN LOOP           [THE_MAIN_LOOP]":
(PID.TID 0000.0001)           User time: 7.88999983668327332
(PID.TID 0000.0001)         System time: 1.98999989032745361
(PID.TID 0000.0001)     Wall clock time: 10.2389948368072510
(PID.TID 0000.0001)          No. starts: 1
(PID.TID 0000.0001)           No. stops: 1
(PID.TID 0000.0001)   Seconds in section "FORWARD_STEP        [THE_MAIN_LOOP]":
(PID.TID 0000.0001)           User time: 7.88999983668327332
(PID.TID 0000.0001)         System time: 1.98999989032745361
(PID.TID 0000.0001)     Wall clock time: 10.2378458976745605
(PID.TID 0000.0001)          No. starts: 36
(PID.TID 0000.0001)           No. stops: 36
(PID.TID 0000.0001)   Seconds in section "DO_STATEVARS_DIAGS  [FORWARD_STEP]":
(PID.TID 0000.0001)           User time: 0.210000276565551758
(PID.TID 0000.0001)         System time: 0.199999809265136719E-01
(PID.TID 0000.0001)     Wall clock time: 0.242648601531982422
(PID.TID 0000.0001)          No. starts: 72
(PID.TID 0000.0001)           No. stops: 72
(PID.TID 0000.0001)   Seconds in section "EXTERNAL_FIELDS_LOAD[FORWARD_STEP]":
(PID.TID 0000.0001)           User time: 0.999999046325683594E-02
(PID.TID 0000.0001)         System time: 0.000000000000000000E+00
(PID.TID 0000.0001)     Wall clock time: 0.112485885620117188E-02
(PID.TID 0000.0001)          No. starts: 36
(PID.TID 0000.0001)           No. stops: 36
(PID.TID 0000.0001)   Seconds in section "DO_ATMOSPHERIC_PHYS [FORWARD_STEP]":
(PID.TID 0000.0001)           User time: 0.000000000000000000E+00
(PID.TID 0000.0001)         System time: 0.000000000000000000E+00
(PID.TID 0000.0001)     Wall clock time: 0.105905532836914062E-02
(PID.TID 0000.0001)          No. starts: 36
(PID.TID 0000.0001)           No. stops: 36
(PID.TID 0000.0001)   Seconds in section "DO_OCEANIC_PHYS     [FORWARD_STEP]":
(PID.TID 0000.0001)           User time: 0.119999170303344727
(PID.TID 0000.0001)         System time: 0.999999046325683594E-02
(PID.TID 0000.0001)     Wall clock time: 0.170802593231201172
(PID.TID 0000.0001)          No. starts: 36
(PID.TID 0000.0001)           No. stops: 36
(PID.TID 0000.0001)   Seconds in section "DYNAMICS            [FORWARD_STEP]":
(PID.TID 0000.0001)           User time: 3.64000007510185242
(PID.TID 0000.0001)         System time: 0.579999923706054688
(PID.TID 0000.0001)     Wall clock time: 4.37083578109741211
(PID.TID 0000.0001)          No. starts: 36
(PID.TID 0000.0001)           No. stops: 36
(PID.TID 0000.0001)   Seconds in section "SOLVE_FOR_PRESSURE  [FORWARD_STEP]":
(PID.TID 0000.0001)           User time: 0.119999885559082031
(PID.TID 0000.0001)         System time: 0.999999046325683594E-02
(PID.TID 0000.0001)     Wall clock time: 0.123804330825805664
(PID.TID 0000.0001)          No. starts: 36
(PID.TID 0000.0001)           No. stops: 36
(PID.TID 0000.0001)   Seconds in section "UV_CORRECTION_STEP  [FORWARD_STEP]":
(PID.TID 0000.0001)           User time: 0.109999179840087891
(PID.TID 0000.0001)         System time: 0.000000000000000000E+00
(PID.TID 0000.0001)     Wall clock time: 0.128569841384887695
(PID.TID 0000.0001)          No. starts: 36
(PID.TID 0000.0001)           No. stops: 36
(PID.TID 0000.0001)   Seconds in section "BLOCKING_EXCHANGES  [FORWARD_STEP]":
(PID.TID 0000.0001)           User time: 0.100000500679016113
(PID.TID 0000.0001)         System time: 0.000000000000000000E+00
(PID.TID 0000.0001)     Wall clock time: 0.819017887115478516E-01
(PID.TID 0000.0001)          No. starts: 72
(PID.TID 0000.0001)           No. stops: 72
(PID.TID 0000.0001)   Seconds in section "THERMODYNAMICS      [FORWARD_STEP]":
(PID.TID 0000.0001)           User time: 2.03999906778335571
(PID.TID 0000.0001)         System time: 0.000000000000000000E+00
(PID.TID 0000.0001)     Wall clock time: 2.07165956497192383
(PID.TID 0000.0001)          No. starts: 36
(PID.TID 0000.0001)           No. stops: 36
(PID.TID 0000.0001)   Seconds in section "TS_CORRECTION_STEP  [FORWARD_STEP]":
(PID.TID 0000.0001)           User time: 0.399999618530273438E-01
(PID.TID 0000.0001)         System time: 0.999999046325683594E-02
(PID.TID 0000.0001)     Wall clock time: 0.396530628204345703E-01
(PID.TID 0000.0001)          No. starts: 36
(PID.TID 0000.0001)           No. stops: 36
(PID.TID 0000.0001)   Seconds in section "DO_STATEVARS_TAVE   [FORWARD_STEP]":
(PID.TID 0000.0001)           User time: 0.360002517700195312
(PID.TID 0000.0001)         System time: 0.000000000000000000E+00
(PID.TID 0000.0001)     Wall clock time: 0.345013380050659180
(PID.TID 0000.0001)          No. starts: 36
(PID.TID 0000.0001)           No. stops: 36
(PID.TID 0000.0001)   Seconds in section "MONITOR             [FORWARD_STEP]":
(PID.TID 0000.0001)           User time: 0.459999263286590576
(PID.TID 0000.0001)         System time: 0.999999046325683594E-02
(PID.TID 0000.0001)     Wall clock time: 0.464193344116210938
(PID.TID 0000.0001)          No. starts: 36
(PID.TID 0000.0001)           No. stops: 36
(PID.TID 0000.0001)   Seconds in section "DO_THE_MODEL_IO     [FORWARD_STEP]":
(PID.TID 0000.0001)           User time: 0.650000214576721191
(PID.TID 0000.0001)         System time: 1.24000012874603271
(PID.TID 0000.0001)     Wall clock time: 2.00104498863220215
(PID.TID 0000.0001)          No. starts: 36
(PID.TID 0000.0001)           No. stops: 36
(PID.TID 0000.0001)   Seconds in section "WRITE_CHECKPOINT    [FORWARD_STEP]":
(PID.TID 0000.0001)           User time: 0.299997329711914062E-01
(PID.TID 0000.0001)         System time: 0.109999895095825195
(PID.TID 0000.0001)     Wall clock time: 0.176504135131835938
(PID.TID 0000.0001)          No. starts: 36
(PID.TID 0000.0001)           No. stops: 36
(PID.TID 0000.0001)   Seconds in section "WRITE_CHECKPOINT       [THE_MODEL_MAIN]":
(PID.TID 0000.0001)           User time: 0.000000000000000000E+00
(PID.TID 0000.0001)         System time: 0.000000000000000000E+00
(PID.TID 0000.0001)     Wall clock time: 0.510215759277343750E-04
(PID.TID 0000.0001)          No. starts: 1
(PID.TID 0000.0001)           No. stops: 1
(PID.TID 0000.0001) // ======================================================
(PID.TID 0000.0001) // Tile <-> Tile communication statistics
(PID.TID 0000.0001) // ======================================================
(PID.TID 0000.0001) // o Tile number: 000001
(PID.TID 0000.0001) //         No. X exchanges =              0
(PID.TID 0000.0001) //            Max. X spins =              0
(PID.TID 0000.0001) //            Min. X spins =     1000000000
(PID.TID 0000.0001) //          Total. X spins =              0
(PID.TID 0000.0001) //            Avg. X spins =       0.00E+00
(PID.TID 0000.0001) //         No. Y exchanges =              0
(PID.TID 0000.0001) //            Max. Y spins =              0
(PID.TID 0000.0001) //            Min. Y spins =     1000000000
(PID.TID 0000.0001) //          Total. Y spins =              0
(PID.TID 0000.0001) //            Avg. Y spins =       0.00E+00
(PID.TID 0000.0001) // o Thread number: 000001
(PID.TID 0000.0001) //            No. barriers =          44542
(PID.TID 0000.0001) //      Max. barrier spins =              1
(PID.TID 0000.0001) //      Min. barrier spins =              1
(PID.TID 0000.0001) //     Total barrier spins =          44542
(PID.TID 0000.0001) //      Avg. barrier spins =       1.00E+00
