(PID.TID 0000.0001) 
(PID.TID 0000.0001) // ======================================================
(PID.TID 0000.0001) //                      MITgcm UV
(PID.TID 0000.0001) //                      =========
(PID.TID 0000.0001) // ======================================================
(PID.TID 0000.0001) // execution environment starting up...
(PID.TID 0000.0001) 
(PID.TID 0000.0001) // MITgcmUV version:  checkpoint58n_post
(PID.TID 0000.0001) // Build user:        jmc
(PID.TID 0000.0001) // Build host:        faulks
(PID.TID 0000.0001) // Build date:        Wed Aug 23 11:35:24 EDT 2006
(PID.TID 0000.0001) 
(PID.TID 0000.0001) // =======================================================
(PID.TID 0000.0001) // Execution Environment parameter file "eedata"
(PID.TID 0000.0001) // =======================================================
(PID.TID 0000.0001) ># Example "eedata" file
(PID.TID 0000.0001) ># Lines beginning "#" are comments
(PID.TID 0000.0001) ># nTx - No. threads per process in X
(PID.TID 0000.0001) ># nTy - No. threads per process in Y
(PID.TID 0000.0001) > &EEPARMS
(PID.TID 0000.0001) > /
(PID.TID 0000.0001) ># Note: Some systems use & as the
(PID.TID 0000.0001) ># namelist terminator. Other systems
(PID.TID 0000.0001) ># use a & character (as shown here).
(PID.TID 0000.0001) 
(PID.TID 0000.0001) // =======================================================
(PID.TID 0000.0001) // Computational Grid Specification ( see files "SIZE.h" )
(PID.TID 0000.0001) //                                  ( and "eedata"       )
(PID.TID 0000.0001) // =======================================================
(PID.TID 0000.0001)      nPx =    1 ; /* No. processes in X */
(PID.TID 0000.0001)      nPy =    1 ; /* No. processes in Y */
(PID.TID 0000.0001)      nSx =    1 ; /* No. tiles in X per process */
(PID.TID 0000.0001)      nSy =    1 ; /* No. tiles in Y per process */
(PID.TID 0000.0001)      sNx =   50 ; /* Tile size in X */
(PID.TID 0000.0001)      sNy =   26 ; /* Tile size in Y */
(PID.TID 0000.0001)      OLx =    3 ; /* Tile overlap distance in X */
(PID.TID 0000.0001)      OLy =    3 ; /* Tile overlap distance in Y */
(PID.TID 0000.0001)      nTx =    1 ; /* No. threads in X per process */
(PID.TID 0000.0001)      nTy =    1 ; /* No. threads in Y per process */
(PID.TID 0000.0001)       Nr =   40 ; /* No. levels in the vertical   */
(PID.TID 0000.0001)       nX =   50 ; /* Total domain size in X ( = nPx*nSx*sNx ) */
(PID.TID 0000.0001)       nY =   26 ; /* Total domain size in Y ( = nPy*nSy*sNy ) */
(PID.TID 0000.0001)   nTiles =    1 ; /* Total no. tiles per process ( = nSx*nSy ) */
(PID.TID 0000.0001)   nProcs =    1 ; /* Total no. processes ( = nPx*nPy ) */
(PID.TID 0000.0001) nThreads =    1 ; /* Total no. threads per process ( = nTx*nTy ) */
(PID.TID 0000.0001) usingMPI =    F ; /* Flag used to control whether MPI is in use */
(PID.TID 0000.0001)                   /*  note: To execute a program with MPI calls */
(PID.TID 0000.0001)                   /*  it must be launched appropriately e.g     */
(PID.TID 0000.0001)                   /*  "mpirun -np 64 ......"                    */
(PID.TID 0000.0001) useCoupler=   F ; /* Flag used to control communications with */
(PID.TID 0000.0001)                   /*  other model components, through a coupler */
(PID.TID 0000.0001) 
(PID.TID 0000.0001) // ======================================================
(PID.TID 0000.0001) // Mapping of tiles to threads
(PID.TID 0000.0001) // ======================================================
(PID.TID 0000.0001) // -o- Thread   1, tiles (   1:   1,   1:   1)
(PID.TID 0000.0001) 
(PID.TID 0000.0001) // ======================================================
(PID.TID 0000.0001) // Tile <-> Tile connectvity table
(PID.TID 0000.0001) // ======================================================
(PID.TID 0000.0001) // Tile number: 000001 (process no. = 000001)
(PID.TID 0000.0001) //        WEST: Tile = 000001, Process = 000001, Comm = put
(PID.TID 0000.0001) //                bi = 000001, bj = 000001
(PID.TID 0000.0001) //        EAST: Tile = 000001, Process = 000001, Comm = put
(PID.TID 0000.0001) //                bi = 000001, bj = 000001
(PID.TID 0000.0001) //       SOUTH: Tile = 000001, Process = 000001, Comm = put
(PID.TID 0000.0001) //                bi = 000001, bj = 000001
(PID.TID 0000.0001) //       NORTH: Tile = 000001, Process = 000001, Comm = put
(PID.TID 0000.0001) //                bi = 000001, bj = 000001
(PID.TID 0000.0001) 
(PID.TID 0000.0001) // =======================================================
(PID.TID 0000.0001) // Model parameter file "data"
(PID.TID 0000.0001) // =======================================================
(PID.TID 0000.0001) ># ====================
(PID.TID 0000.0001) ># | Model parameters |
(PID.TID 0000.0001) ># ====================
(PID.TID 0000.0001) >#
(PID.TID 0000.0001) ># Continuous equation parameters
(PID.TID 0000.0001) > &PARM01
(PID.TID 0000.0001) > viscAr=5.E-5,
(PID.TID 0000.0001) ># This is the background viscosity used total=viscah+viscleith
(PID.TID 0000.0001) ># viscAh=1.E2,
(PID.TID 0000.0001) ># viscA4=1.E2,
(PID.TID 0000.0001) ># This is the background viscosity used on vorticity points
(PID.TID 0000.0001) ># viscAhZ=1.E2,
(PID.TID 0000.0001) ># viscA4Z=1.E2,
(PID.TID 0000.0001) ># This is the background viscosity used on divergence points
(PID.TID 0000.0001) ># viscAhD=1.E2,
(PID.TID 0000.0001) ># viscA4D=1.E2,
(PID.TID 0000.0001) ># viscAhd and viscahz are set to viscah if they are unset initially
(PID.TID 0000.0001) >#
(PID.TID 0000.0001) ># This is a maximum gridscale Reynolds number limiter
(PID.TID 0000.0001) ># ViscAhRemax=10,
(PID.TID 0000.0001) ># ViscA4Remax=10,
(PID.TID 0000.0001) ># This is a minimum autoscaling viscosity
(PID.TID 0000.0001) ># ViscAhGridMin=.01,
(PID.TID 0000.0001) ># ViscA4GridMin=.01,
(PID.TID 0000.0001) ># This is the standard Leith Viscosity coefficient,
(PID.TID 0000.0001) ># visc=(visc2leith/pi)**3 grad(curl v_h)
(PID.TID 0000.0001) ># viscC2leith=1.0,
(PID.TID 0000.0001) > viscC4leith=1.85,
(PID.TID 0000.0001) ># This is an additional Leith Viscosity, prop to grad(div.v_h)
(PID.TID 0000.0001) ># It traps instabilities that have no signal in grad(curl v_h)
(PID.TID 0000.0001) ># viscC2leithD=1.0,
(PID.TID 0000.0001) > viscC4leithD=1.85,
(PID.TID 0000.0001) ># This is harmonic Smagorinsky Coefficient
(PID.TID 0000.0001) ># 0.2-0.9=value from 3-d turbulence theory; Smagorinsky (1993)
(PID.TID 0000.0001) ># 2.2-4=stable oceanic values (Griffies and Hallberg, 2000)
(PID.TID 0000.0001) ># 1.0 smag is approximately the same as 1.85 leith+leithd
(PID.TID 0000.0001) ># for this grid spacing
(PID.TID 0000.0001) ># viscC2Smag=1.0,
(PID.TID 0000.0001) > viscC4Smag=1.0,
(PID.TID 0000.0001) ># This is the max Viscosity used, be it Smag or Leith, and it scales
(PID.TID 0000.0001) ># with grid size and timestep
(PID.TID 0000.0001) ># viscAhGridMax=1.0,
(PID.TID 0000.0001) > viscA4GridMax=1.0,
(PID.TID 0000.0001) ># This uses the full grad(vort) and grad(div)
(PID.TID 0000.0001) > useFullLeith=.TRUE.,
(PID.TID 0000.0001) ># This uses the Strain-Tension form for calculating viscous terms
(PID.TID 0000.0001) ># useStrainTensionVisc=.TRUE.,
(PID.TID 0000.0001) > no_slip_sides=.FALSE.,
(PID.TID 0000.0001) > no_slip_bottom=.FALSE.,
(PID.TID 0000.0001) > ivdc_kappa=10.,
(PID.TID 0000.0001) > implicitDiffusion=.TRUE.,
(PID.TID 0000.0001) > implicitViscosity=.TRUE.,
(PID.TID 0000.0001) > f0=7.29e-5,
(PID.TID 0000.0001) > beta=0.E-11,
(PID.TID 0000.0001) > eosType='LINEAR',
(PID.TID 0000.0001) ># Using Temperature as only Active Tracer
(PID.TID 0000.0001) > tAlpha=2.E-4,
(PID.TID 0000.0001) ># Using Salinity as Spice
(PID.TID 0000.0001) > sBeta =0.E-4,
(PID.TID 0000.0001) > saltStepping=.TRUE.,
(PID.TID 0000.0001) > gravity=9.81,
(PID.TID 0000.0001) > rhonil=1035.,
(PID.TID 0000.0001) > implicitFreeSurface=.TRUE.,
(PID.TID 0000.0001) > usejamartwetpoints=.TRUE.,
(PID.TID 0000.0001) > rigidLid=.FALSE.,
(PID.TID 0000.0001) > staggerTimeStep=.TRUE.,
(PID.TID 0000.0001) > readBinaryPrec=64,
(PID.TID 0000.0001) > writeBinaryPrec=64,
(PID.TID 0000.0001) > tempAdvScheme=33,
(PID.TID 0000.0001) > saltAdvScheme=33,
(PID.TID 0000.0001) > nonHydrostatic=.FALSE.,
(PID.TID 0000.0001) > vectorInvariantMomentum=.TRUE.,
(PID.TID 0000.0001) > /
(PID.TID 0000.0001) >
(PID.TID 0000.0001) ># Elliptic solver parameters
(PID.TID 0000.0001) > &PARM02
(PID.TID 0000.0001) > cg2dMaxIters=1000,
(PID.TID 0000.0001) > cg2dTargetResidual=1.E-11,
(PID.TID 0000.0001) > cg3dMaxIters=40,
(PID.TID 0000.0001) > cg3dTargetResidual=1.E-9,
(PID.TID 0000.0001) > /
(PID.TID 0000.0001) >
(PID.TID 0000.0001) ># Time stepping parameters
(PID.TID 0000.0001) > &PARM03
(PID.TID 0000.0001) > niter0=0,
(PID.TID 0000.0001) >#endTime=86400.,
(PID.TID 0000.0001) >#- for testing, only run for 12 iterations:
(PID.TID 0000.0001) > nTimeSteps=12,
(PID.TID 0000.0001) > deltaT=1200.,
(PID.TID 0000.0001) > abEps=0.01,
(PID.TID 0000.0001) >#- for testing, reduce amount of output by commenting out output frequencies:
(PID.TID 0000.0001) ># pchkptFreq=43200.,
(PID.TID 0000.0001) >#taveFreq=7200.,
(PID.TID 0000.0001) >#dumpFreq=7200.,
(PID.TID 0000.0001) >#diagFreq=7200.,
(PID.TID 0000.0001) > monitorFreq=1200.,
(PID.TID 0000.0001) > cadjfreq=0.,
(PID.TID 0000.0001) > /
(PID.TID 0000.0001) >
(PID.TID 0000.0001) ># Gridding parameters
(PID.TID 0000.0001) > &PARM04
(PID.TID 0000.0001) > usingCartesianGrid=.TRUE.,
(PID.TID 0000.0001) > usingSphericalPolarGrid=.FALSE.,
(PID.TID 0000.0001) >  delR= 5d0, 5d0, 5d0, 5d0, 5d0,
(PID.TID 0000.0001) >    5d0, 5d0, 5d0, 5d0, 5d0,
(PID.TID 0000.0001) >    5d0, 5d0, 5d0, 5d0, 5d0,
(PID.TID 0000.0001) >    5d0, 5d0, 5d0, 5d0, 5d0,
(PID.TID 0000.0001) >    5d0, 5d0, 5d0, 5d0, 5d0,
(PID.TID 0000.0001) >    5d0, 5d0, 5d0, 5d0, 5d0,
(PID.TID 0000.0001) >    5d0, 5d0, 5d0, 5d0, 5d0,
(PID.TID 0000.0001) >    5d0, 5d0, 5d0, 5d0, 5d0,
(PID.TID 0000.0001) > dxspacing=1d3,
(PID.TID 0000.0001) > dyspacing=1d3,
(PID.TID 0000.0001) > /
(PID.TID 0000.0001) >
(PID.TID 0000.0001) ># Input datasets
(PID.TID 0000.0001) > &PARM05
(PID.TID 0000.0001) > bathyFile='topo_sl.bin',
(PID.TID 0000.0001) > hydrogThetaFile='thetaInitial.bin',
(PID.TID 0000.0001) > hydrogSaltFile='spiceInitial.bin',
(PID.TID 0000.0001) > /
(PID.TID 0000.0001) >
(PID.TID 0000.0001) 
(PID.TID 0000.0001) S/R INI_PARMS ; starts to read PARM01
(PID.TID 0000.0001) S/R INI_PARMS ; read PARM01 : OK
(PID.TID 0000.0001) S/R INI_PARMS ; starts to read PARM02
(PID.TID 0000.0001) S/R INI_PARMS ; read PARM02 : OK
(PID.TID 0000.0001) S/R INI_PARMS ; starts to read PARM03
(PID.TID 0000.0001) S/R INI_PARMS ; read PARM03 : OK
(PID.TID 0000.0001) S/R INI_PARMS ; starts to read PARM04
(PID.TID 0000.0001) S/R INI_PARMS ; read PARM04 : OK
(PID.TID 0000.0001) S/R INI_PARMS ; starts to read PARM05
(PID.TID 0000.0001) S/R INI_PARMS ; read PARM05 : OK
(PID.TID 0000.0001)  PACKAGES_BOOT: opening data.pkg
(PID.TID 0000.0001)  OPEN_COPY_DATA_FILE: opening file data.pkg
(PID.TID 0000.0001) // =======================================================
(PID.TID 0000.0001) // Parameter file "data.pkg"
(PID.TID 0000.0001) // =======================================================
(PID.TID 0000.0001) ># Packages
(PID.TID 0000.0001) > &PACKAGES
(PID.TID 0000.0001) >   useKPP     = .FALSE.,
(PID.TID 0000.0001) >   useMNC     = .TRUE.,
(PID.TID 0000.0001) >   useDIAGNOSTICS= .TRUE.,
(PID.TID 0000.0001) > /
(PID.TID 0000.0001) >
(PID.TID 0000.0001) 
(PID.TID 0000.0001)  PACKAGES_BOOT: finished reading data.pkg
(PID.TID 0000.0001)  MNC_READPARMS: opening file 'data.mnc'
(PID.TID 0000.0001)  OPEN_COPY_DATA_FILE: opening file data.mnc
(PID.TID 0000.0001) // =======================================================
(PID.TID 0000.0001) // Parameter file "data.mnc"
(PID.TID 0000.0001) // =======================================================
(PID.TID 0000.0001) ># Example "data.mnc" file
(PID.TID 0000.0001) ># Lines beginning "#" are comments
(PID.TID 0000.0001) > &MNC_01
(PID.TID 0000.0001) ># mnc_echo_gvtypes=.FALSE.,
(PID.TID 0000.0001) ># mnc_use_indir=.FALSE.,
(PID.TID 0000.0001) > mnc_use_outdir=.TRUE.,
(PID.TID 0000.0001) > mnc_outdir_str='mnc_test_',
(PID.TID 0000.0001) ># mnc_outdir_date=.TRUE.,
(PID.TID 0000.0001) > monitor_mnc=.FALSE.,
(PID.TID 0000.0001) > snapshot_mnc=.TRUE.,
(PID.TID 0000.0001) > timeave_mnc=.TRUE.,
(PID.TID 0000.0001) > pickup_write_mnc=.TRUE.,
(PID.TID 0000.0001) > pickup_read_mnc=.TRUE.,
(PID.TID 0000.0001) > /
(PID.TID 0000.0001) ># Note: Some systems use & as the
(PID.TID 0000.0001) ># namelist terminator. Other systems
(PID.TID 0000.0001) ># use a & character (as shown here).
(PID.TID 0000.0001) 
(PID.TID 0000.0001)  MNC_READPARMS: finished reading data.mnc
(PID.TID 0000.0001)  DIAGNOSTICS_READPARMS: opening data.diagnostics
(PID.TID 0000.0001)  OPEN_COPY_DATA_FILE: opening file data.diagnostics
(PID.TID 0000.0001) // =======================================================
(PID.TID 0000.0001) // Parameter file "data.diagnostics"
(PID.TID 0000.0001) // =======================================================
(PID.TID 0000.0001) ># Diagnostic Package Choices
(PID.TID 0000.0001) >#-----------------
(PID.TID 0000.0001) ># for each output-stream:
(PID.TID 0000.0001) >#  filename(n) : prefix of the output file name (only 8.c long) for outp.stream n
(PID.TID 0000.0001) >#  frequency(n):< 0 : write snap-shot output every |frequency| seconds
(PID.TID 0000.0001) >#               > 0 : write time-average output every frequency seconds
(PID.TID 0000.0001) >#  timePhase(n)     : write at time = timePhase + multiple of |frequency|
(PID.TID 0000.0001) >#  levels(:,n) : list of levels to write to file (Notes: declared as REAL)
(PID.TID 0000.0001) >#                 when this entry is missing, select all common levels of this list
(PID.TID 0000.0001) >#  fields(:,n) : list of diagnostics fields (8.c) (see "available_diagnostics" file
(PID.TID 0000.0001) >#                 for the list of all available diag. in this particular config)
(PID.TID 0000.0001) >#-----------------
(PID.TID 0000.0001) > &diagnostics_list
(PID.TID 0000.0001) >  diag_mnc=.TRUE.,
(PID.TID 0000.0001) >  frequency(1) = 7200.,
(PID.TID 0000.0001) >  fields(1,1) = 'momKE   ','momHDiv ','momVort3',
(PID.TID 0000.0001) >                'Strain  ','Tension ',
(PID.TID 0000.0001) >  filename(1) = 'mom',
(PID.TID 0000.0001) >  frequency(2) = 7200.,
(PID.TID 0000.0001) >  fields(1,2) = 'VISCAHD ','VISCA4D ','VISCAHZ ','VISCA4Z ',
(PID.TID 0000.0001) >                'VAHDMAX ','VA4DMAX ','VAHZMAX ','VA4ZMAX ',
(PID.TID 0000.0001) >                'VAHDMIN ','VA4DMIN ','VAHZMIN ','VA4ZMIN ',
(PID.TID 0000.0001) >                'VAHDLTH ','VA4DLTH ','VAHZLTH ','VA4ZLTH ',
(PID.TID 0000.0001) >                'VAHDLTHD','VA4DLTHD','VAHZLTHD','VA4ZLTHD',
(PID.TID 0000.0001) >                'VAHDSMAG','VA4DSMAG','VAHZSMAG','VA4ZSMAG',
(PID.TID 0000.0001) >  filename(2) = 'visc',
(PID.TID 0000.0001) > &
(PID.TID 0000.0001) >
(PID.TID 0000.0001) >
(PID.TID 0000.0001) ># Parameter for Diagnostics of per level statistics:
(PID.TID 0000.0001) >#-----------------
(PID.TID 0000.0001) ># for each output-stream:
(PID.TID 0000.0001) >#  stat_fname(n) : prefix of the output file name (only 8.c long) for outp.stream n
(PID.TID 0000.0001) >#  stat_freq(n):< 0 : write snap-shot output every |stat_freq| seconds
(PID.TID 0000.0001) >#               > 0 : write time-average output every stat_freq seconds
(PID.TID 0000.0001) >#  stat_phase(n)    : write at time = stat_phase + multiple of |stat_freq|
(PID.TID 0000.0001) >#  stat_region(:,n) : list of "regions" (default: 1 region only=global)
(PID.TID 0000.0001) >#  stat_fields(:,n) : list of diagnostics fields (8.c) (see "available_diagnostics.log"
(PID.TID 0000.0001) >#                 file for the list of all available diag. in this particular config)
(PID.TID 0000.0001) >#-----------------
(PID.TID 0000.0001) > &DIAG_STATIS_PARMS
(PID.TID 0000.0001) >#- an example just to check the agreement with MONITOR output:
(PID.TID 0000.0001) >#stat_fields(1,1)= 'ETAN    ','UVEL    ','VVEL    ','WVEL    ', 'THETA   ',
(PID.TID 0000.0001) >#   stat_fname(1)= 'dynStDiag',
(PID.TID 0000.0001) >#    stat_freq(1)= -864000.,
(PID.TID 0000.0001) >#   stat_phase(1)= 0.,
(PID.TID 0000.0001) > &
(PID.TID 0000.0001) >
(PID.TID 0000.0001) 
(PID.TID 0000.0001) S/R DIAGNOSTICS_READPARMS, read namelist "diagnostics_list": start
(PID.TID 0000.0001) S/R DIAGNOSTICS_READPARMS, read namelist "diagnostics_list": OK
(PID.TID 0000.0001) S/R DIAGNOSTICS_READPARMS, read namelist "DIAG_STATIS_PARMS": start
(PID.TID 0000.0001) S/R DIAGNOSTICS_READPARMS, read namelist "DIAG_STATIS_PARMS": OK
(PID.TID 0000.0001) -----------------------------------------------------
(PID.TID 0000.0001)  DIAGNOSTICS_READPARMS: active diagnostics summary:
(PID.TID 0000.0001) -----------------------------------------------------
(PID.TID 0000.0001) Creating Output Stream: mom
(PID.TID 0000.0001) Output Frequency:      7200.000000 ; Phase:          0.000000
(PID.TID 0000.0001)  Averaging Freq.:      7200.000000 , Phase:          0.000000 , Cycle:  1
(PID.TID 0000.0001)  Levels:    will be set later
(PID.TID 0000.0001)  Fields:    momKE    momHDiv  momVort3 Strain   Tension
(PID.TID 0000.0001) Creating Output Stream: visc
(PID.TID 0000.0001) Output Frequency:      7200.000000 ; Phase:          0.000000
(PID.TID 0000.0001)  Averaging Freq.:      7200.000000 , Phase:          0.000000 , Cycle:  1
(PID.TID 0000.0001)  Levels:    will be set later
(PID.TID 0000.0001)  Fields:    VISCAHD  VISCA4D  VISCAHZ  VISCA4Z  VAHDMAX  VA4DMAX  VAHZMAX  VA4ZMAX  VAHDMIN  VA4DMIN
(PID.TID 0000.0001)  Fields:    VAHZMIN  VA4ZMIN  VAHDLTH  VA4DLTH  VAHZLTH  VA4ZLTH  VAHDLTHD VA4DLTHD VAHZLTHD VA4ZLTHD
(PID.TID 0000.0001)  Fields:    VAHDSMAG VA4DSMAG VAHZSMAG VA4ZSMAG
(PID.TID 0000.0001) -----------------------------------------------------
(PID.TID 0000.0001)  DIAGNOSTICS_READPARMS: statistics diags. summary:
(PID.TID 0000.0001) -----------------------------------------------------
(PID.TID 0000.0001) 
(PID.TID 0000.0001) SET_PARMS: done
(PID.TID 0000.0001) Enter INI_VERTICAL_GRID: setInterFDr=    T ; setCenterDr=    F
(PID.TID 0000.0001) %MON XC_max                       =   4.9500000000000E+04
(PID.TID 0000.0001) %MON XC_min                       =   5.0000000000000E+02
(PID.TID 0000.0001) %MON XC_mean                      =   2.5000000000000E+04
(PID.TID 0000.0001) %MON XC_sd                        =   1.4430869689662E+04
(PID.TID 0000.0001) %MON XG_max                       =   4.9000000000000E+04
(PID.TID 0000.0001) %MON XG_min                       =   1.0000000000000E+03
(PID.TID 0000.0001) %MON XG_mean                      =   2.5000000000000E+04
(PID.TID 0000.0001) %MON XG_sd                        =   1.4142135623731E+04
(PID.TID 0000.0001) %MON DXC_max                      =   1.0000000000000E+03
(PID.TID 0000.0001) %MON DXC_min                      =   1.0000000000000E+03
(PID.TID 0000.0001) %MON DXC_mean                     =   1.0000000000000E+03
(PID.TID 0000.0001) %MON DXC_sd                       =   0.0000000000000E+00
(PID.TID 0000.0001) %MON DXF_max                      =   1.0000000000000E+03
(PID.TID 0000.0001) %MON DXF_min                      =   1.0000000000000E+03
(PID.TID 0000.0001) %MON DXF_mean                     =   1.0000000000000E+03
(PID.TID 0000.0001) %MON DXF_sd                       =   0.0000000000000E+00
(PID.TID 0000.0001) %MON DXG_max                      =   1.0000000000000E+03
(PID.TID 0000.0001) %MON DXG_min                      =   1.0000000000000E+03
(PID.TID 0000.0001) %MON DXG_mean                     =   1.0000000000000E+03
(PID.TID 0000.0001) %MON DXG_sd                       =   0.0000000000000E+00
(PID.TID 0000.0001) %MON DXV_max                      =   1.0000000000000E+03
(PID.TID 0000.0001) %MON DXV_min                      =   1.0000000000000E+03
(PID.TID 0000.0001) %MON DXV_mean                     =   1.0000000000000E+03
(PID.TID 0000.0001) %MON DXV_sd                       =   0.0000000000000E+00
(PID.TID 0000.0001) %MON YC_max                       =   2.5500000000000E+04
(PID.TID 0000.0001) %MON YC_min                       =   5.0000000000000E+02
(PID.TID 0000.0001) %MON YC_mean                      =   1.3000000000000E+04
(PID.TID 0000.0001) %MON YC_sd                        =   7.5000000000000E+03
(PID.TID 0000.0001) %MON YG_max                       =   2.5000000000000E+04
(PID.TID 0000.0001) %MON YG_min                       =   1.0000000000000E+03
(PID.TID 0000.0001) %MON YG_mean                      =   1.3000000000000E+04
(PID.TID 0000.0001) %MON YG_sd                        =   7.2111025509280E+03
(PID.TID 0000.0001) %MON DYC_max                      =   1.0000000000000E+03
(PID.TID 0000.0001) %MON DYC_min                      =   1.0000000000000E+03
(PID.TID 0000.0001) %MON DYC_mean                     =   1.0000000000000E+03
(PID.TID 0000.0001) %MON DYC_sd                       =   0.0000000000000E+00
(PID.TID 0000.0001) %MON DYF_max                      =   1.0000000000000E+03
(PID.TID 0000.0001) %MON DYF_min                      =   1.0000000000000E+03
(PID.TID 0000.0001) %MON DYF_mean                     =   1.0000000000000E+03
(PID.TID 0000.0001) %MON DYF_sd                       =   0.0000000000000E+00
(PID.TID 0000.0001) %MON DYG_max                      =   1.0000000000000E+03
(PID.TID 0000.0001) %MON DYG_min                      =   1.0000000000000E+03
(PID.TID 0000.0001) %MON DYG_mean                     =   1.0000000000000E+03
(PID.TID 0000.0001) %MON DYG_sd                       =   0.0000000000000E+00
(PID.TID 0000.0001) %MON DYU_max                      =   1.0000000000000E+03
(PID.TID 0000.0001) %MON DYU_min                      =   1.0000000000000E+03
(PID.TID 0000.0001) %MON DYU_mean                     =   1.0000000000000E+03
(PID.TID 0000.0001) %MON DYU_sd                       =   0.0000000000000E+00
(PID.TID 0000.0001) %MON RA_max                       =   1.0000000000000E+06
(PID.TID 0000.0001) %MON RA_min                       =   1.0000000000000E+06
(PID.TID 0000.0001) %MON RA_mean                      =   1.0000000000000E+06
(PID.TID 0000.0001) %MON RA_sd                        =   0.0000000000000E+00
(PID.TID 0000.0001) %MON RAW_max                      =   1.0000000000000E+06
(PID.TID 0000.0001) %MON RAW_min                      =   1.0000000000000E+06
(PID.TID 0000.0001) %MON RAW_mean                     =   1.0000000000000E+06
(PID.TID 0000.0001) %MON RAW_sd                       =   0.0000000000000E+00
(PID.TID 0000.0001) %MON RAS_max                      =   1.0000000000000E+06
(PID.TID 0000.0001) %MON RAS_min                      =   1.0000000000000E+06
(PID.TID 0000.0001) %MON RAS_mean                     =   1.0000000000000E+06
(PID.TID 0000.0001) %MON RAS_sd                       =   0.0000000000000E+00
(PID.TID 0000.0001) %MON RAZ_max                      =   1.0000000000000E+06
(PID.TID 0000.0001) %MON RAZ_min                      =   1.0000000000000E+06
(PID.TID 0000.0001) %MON RAZ_mean                     =   1.0000000000000E+06
(PID.TID 0000.0001) %MON RAZ_sd                       =   0.0000000000000E+00
(PID.TID 0000.0001) %MON AngleCS_max                  =   1.0000000000000E+00
(PID.TID 0000.0001) %MON AngleCS_min                  =   1.0000000000000E+00
(PID.TID 0000.0001) %MON AngleCS_mean                 =   1.0000000000000E+00
(PID.TID 0000.0001) %MON AngleCS_sd                   =   0.0000000000000E+00
(PID.TID 0000.0001) %MON AngleSN_max                  =   0.0000000000000E+00
(PID.TID 0000.0001) %MON AngleSN_min                  =   0.0000000000000E+00
(PID.TID 0000.0001) %MON AngleSN_mean                 =   0.0000000000000E+00
(PID.TID 0000.0001) %MON AngleSN_sd                   =   0.0000000000000E+00
(PID.TID 0000.0001)  MDSREADFIELD: opening global file: topo_sl.bin
(PID.TID 0000.0001) // =======================================================
(PID.TID 0000.0001) // Field Model R_low (ini_masks_etc) at iteration          1
(PID.TID 0000.0001) // CMIN =         -2.000000000000000E+02
(PID.TID 0000.0001) // CMAX =         -2.000000000000000E+02
(PID.TID 0000.0001) // CINT =          0.000000000000000E+00
(PID.TID 0000.0001) // SYMBOLS (CMIN->CMAX): -abcdefghijklmnopqrstuvwxyz+
(PID.TID 0000.0001) //                  0.0: .
(PID.TID 0000.0001) // RANGE I (Lo:Hi:Step):(  -2:  53:   1)
(PID.TID 0000.0001) // RANGE J (Lo:Hi:Step):(  29:  -2:  -1)
(PID.TID 0000.0001) // RANGE K (Lo:Hi:Step):(   1:   1:   1)
(PID.TID 0000.0001) // =======================================================
(PID.TID 0000.0001) // =======================================================
(PID.TID 0000.0001) // END OF FIELD                                          =
(PID.TID 0000.0001) // =======================================================
(PID.TID 0000.0001) 
(PID.TID 0000.0001) // =======================================================
(PID.TID 0000.0001) // Field Model Ro_surf (ini_masks_etc) at iteration          1
(PID.TID 0000.0001) // CMIN =          1.000000000000000E+32
(PID.TID 0000.0001) // CMAX =         -1.000000000000000E+32
(PID.TID 0000.0001) // CINT =          0.000000000000000E+00
(PID.TID 0000.0001) // SYMBOLS (CMIN->CMAX): -abcdefghijklmnopqrstuvwxyz+
(PID.TID 0000.0001) //                  0.0: .
(PID.TID 0000.0001) // RANGE I (Lo:Hi:Step):(  -2:  53:   1)
(PID.TID 0000.0001) // RANGE J (Lo:Hi:Step):(  29:  -2:  -1)
(PID.TID 0000.0001) // RANGE K (Lo:Hi:Step):(   1:   1:   1)
(PID.TID 0000.0001) // =======================================================
(PID.TID 0000.0001) // =======================================================
(PID.TID 0000.0001) // END OF FIELD                                          =
(PID.TID 0000.0001) // =======================================================
(PID.TID 0000.0001) 
(PID.TID 0000.0001) // =======================================================
(PID.TID 0000.0001) // Field hFacC at iteration          1
(PID.TID 0000.0001) // CMIN =          1.000000000000000E+00
(PID.TID 0000.0001) // CMAX =          1.000000000000000E+00
(PID.TID 0000.0001) // CINT =          0.000000000000000E+00
(PID.TID 0000.0001) // SYMBOLS (CMIN->CMAX): -abcdefghijklmnopqrstuvwxyz+
(PID.TID 0000.0001) //                  0.0: .
(PID.TID 0000.0001) // RANGE I (Lo:Hi:Step):(  -2:  53:   1)
(PID.TID 0000.0001) // RANGE J (Lo:Hi:Step):(  29:  -2:  -1)
(PID.TID 0000.0001) // RANGE K (Lo:Hi:Step):(   1:   1:   1)
(PID.TID 0000.0001) // =======================================================
(PID.TID 0000.0001) // =======================================================
(PID.TID 0000.0001) // END OF FIELD                                          =
(PID.TID 0000.0001) // =======================================================
(PID.TID 0000.0001) 
(PID.TID 0000.0001) // =======================================================
(PID.TID 0000.0001) // Field hFacW at iteration          1
(PID.TID 0000.0001) // CMIN =          1.000000000000000E+00
(PID.TID 0000.0001) // CMAX =          1.000000000000000E+00
(PID.TID 0000.0001) // CINT =          0.000000000000000E+00
(PID.TID 0000.0001) // SYMBOLS (CMIN->CMAX): -abcdefghijklmnopqrstuvwxyz+
(PID.TID 0000.0001) //                  0.0: .
(PID.TID 0000.0001) // RANGE I (Lo:Hi:Step):(  -2:  53:   1)
(PID.TID 0000.0001) // RANGE J (Lo:Hi:Step):(  29:  -2:  -1)
(PID.TID 0000.0001) // RANGE K (Lo:Hi:Step):(   1:   1:   1)
(PID.TID 0000.0001) // =======================================================
(PID.TID 0000.0001) // =======================================================
(PID.TID 0000.0001) // END OF FIELD                                          =
(PID.TID 0000.0001) // =======================================================
(PID.TID 0000.0001) 
(PID.TID 0000.0001) // =======================================================
(PID.TID 0000.0001) // Field hFacS at iteration          1
(PID.TID 0000.0001) // CMIN =          1.000000000000000E+00
(PID.TID 0000.0001) // CMAX =          1.000000000000000E+00
(PID.TID 0000.0001) // CINT =          0.000000000000000E+00
(PID.TID 0000.0001) // SYMBOLS (CMIN->CMAX): -abcdefghijklmnopqrstuvwxyz+
(PID.TID 0000.0001) //                  0.0: .
(PID.TID 0000.0001) // RANGE I (Lo:Hi:Step):(  -2:  53:   1)
(PID.TID 0000.0001) // RANGE J (Lo:Hi:Step):(  29:  -2:  -1)
(PID.TID 0000.0001) // RANGE K (Lo:Hi:Step):(   1:   1:   1)
(PID.TID 0000.0001) // =======================================================
(PID.TID 0000.0001) // =======================================================
(PID.TID 0000.0001) // END OF FIELD                                          =
(PID.TID 0000.0001) // =======================================================
(PID.TID 0000.0001) 
(PID.TID 0000.0001) 
(PID.TID 0000.0001) // ===================================
(PID.TID 0000.0001) // GAD parameters :
(PID.TID 0000.0001) // ===================================
(PID.TID 0000.0001) tempAdvScheme =   /* Temp. Horiz.Advection scheme selector */
(PID.TID 0000.0001)                      33
(PID.TID 0000.0001)     ;
(PID.TID 0000.0001) tempVertAdvScheme =   /* Temp. Vert. Advection scheme selector */
(PID.TID 0000.0001)                      33
(PID.TID 0000.0001)     ;
(PID.TID 0000.0001) tempMultiDimAdvec =   /* use Muti-Dim Advec method for Temp */
(PID.TID 0000.0001)                   T
(PID.TID 0000.0001)     ;
(PID.TID 0000.0001) AdamsBashforthGt =   /* apply Adams-Bashforth extrapolation on Gt */
(PID.TID 0000.0001)                   F
(PID.TID 0000.0001)     ;
(PID.TID 0000.0001) AdamsBashforth_T =   /* apply Adams-Bashforth extrapolation on Temp */
(PID.TID 0000.0001)                   F
(PID.TID 0000.0001)     ;
(PID.TID 0000.0001) saltAdvScheme =   /* Salt. Horiz.advection scheme selector */
(PID.TID 0000.0001)                      33
(PID.TID 0000.0001)     ;
(PID.TID 0000.0001) saltVertAdvScheme =   /* Salt. Vert. Advection scheme selector */
(PID.TID 0000.0001)                      33
(PID.TID 0000.0001)     ;
(PID.TID 0000.0001) saltMultiDimAdvec =   /* use Muti-Dim Advec method for Salt */
(PID.TID 0000.0001)                   T
(PID.TID 0000.0001)     ;
(PID.TID 0000.0001) AdamsBashforthGs =   /* apply Adams-Bashforth extrapolation on Gs */
(PID.TID 0000.0001)                   F
(PID.TID 0000.0001)     ;
(PID.TID 0000.0001) AdamsBashforth_S =   /* apply Adams-Bashforth extrapolation on Salt */
(PID.TID 0000.0001)                   F
(PID.TID 0000.0001)     ;
(PID.TID 0000.0001) // ===================================
(PID.TID 0000.0001) ------------------------------------------------------------
(PID.TID 0000.0001) DIAGNOSTICS_SET_LEVELS: done
(PID.TID 0000.0001)  Total Nb of available Diagnostics: ndiagt= 167
(PID.TID 0000.0001)  write list of available Diagnostics to file: available_diagnostics.log
(PID.TID 0000.0001) SETDIAG: Allocate 40 x  1 Levels for Diagnostic # 133 momKE
(PID.TID 0000.0001) SETDIAG: Allocate 40 x  1 Levels for Diagnostic # 134 momHDiv
(PID.TID 0000.0001) SETDIAG: Allocate 40 x  1 Levels for Diagnostic # 135 momVort3
(PID.TID 0000.0001) SETDIAG: Allocate 40 x  1 Levels for Diagnostic # 136 Strain
(PID.TID 0000.0001) SETDIAG: Allocate 40 x  1 Levels for Diagnostic # 137 Tension
(PID.TID 0000.0001) SETDIAG: Allocate 40 x  1 Levels for Diagnostic # 109 VISCAHD
(PID.TID 0000.0001) SETDIAG: Allocate 40 x  1 Levels for Diagnostic # 110 VISCA4D
(PID.TID 0000.0001) SETDIAG: Allocate 40 x  1 Levels for Diagnostic # 107 VISCAHZ
(PID.TID 0000.0001) SETDIAG: Allocate 40 x  1 Levels for Diagnostic # 108 VISCA4Z
(PID.TID 0000.0001) SETDIAG: Allocate 40 x  1 Levels for Diagnostic # 115 VAHDMAX
(PID.TID 0000.0001) SETDIAG: Allocate 40 x  1 Levels for Diagnostic # 116 VA4DMAX
(PID.TID 0000.0001) SETDIAG: Allocate 40 x  1 Levels for Diagnostic # 113 VAHZMAX
(PID.TID 0000.0001) SETDIAG: Allocate 40 x  1 Levels for Diagnostic # 114 VA4ZMAX
(PID.TID 0000.0001) SETDIAG: Allocate 40 x  1 Levels for Diagnostic # 119 VAHDMIN
(PID.TID 0000.0001) SETDIAG: Allocate 40 x  1 Levels for Diagnostic # 120 VA4DMIN
(PID.TID 0000.0001) SETDIAG: Allocate 40 x  1 Levels for Diagnostic # 117 VAHZMIN
(PID.TID 0000.0001) SETDIAG: Allocate 40 x  1 Levels for Diagnostic # 118 VA4ZMIN
(PID.TID 0000.0001) SETDIAG: Allocate 40 x  1 Levels for Diagnostic # 123 VAHDLTH
(PID.TID 0000.0001) SETDIAG: Allocate 40 x  1 Levels for Diagnostic # 124 VA4DLTH
(PID.TID 0000.0001) SETDIAG: Allocate 40 x  1 Levels for Diagnostic # 121 VAHZLTH
(PID.TID 0000.0001) SETDIAG: Allocate 40 x  1 Levels for Diagnostic # 122 VA4ZLTH
(PID.TID 0000.0001) SETDIAG: Allocate 40 x  1 Levels for Diagnostic # 127 VAHDLTHD
(PID.TID 0000.0001) SETDIAG: Allocate 40 x  1 Levels for Diagnostic # 128 VA4DLTHD
(PID.TID 0000.0001) SETDIAG: Allocate 40 x  1 Levels for Diagnostic # 125 VAHZLTHD
(PID.TID 0000.0001) SETDIAG: Allocate 40 x  1 Levels for Diagnostic # 126 VA4ZLTHD
(PID.TID 0000.0001) SETDIAG: Allocate 40 x  1 Levels for Diagnostic # 131 VAHDSMAG
(PID.TID 0000.0001) SETDIAG: Allocate 40 x  1 Levels for Diagnostic # 132 VA4DSMAG
(PID.TID 0000.0001) SETDIAG: Allocate 40 x  1 Levels for Diagnostic # 129 VAHZSMAG
(PID.TID 0000.0001) SETDIAG: Allocate 40 x  1 Levels for Diagnostic # 130 VA4ZSMAG
(PID.TID 0000.0001)   space allocated for all diagnostics:  1160 levels
(PID.TID 0000.0001) DIAGNOSTICS_SET_POINTERS: Set levels for Outp.Stream: mom
(PID.TID 0000.0001)  Levels:       1.   2.   3.   4.   5.   6.   7.   8.   9.  10.  11.  12.  13.  14.  15.  16.  17.  18.  19.  20.
(PID.TID 0000.0001)  Levels:      21.  22.  23.  24.  25.  26.  27.  28.  29.  30.  31.  32.  33.  34.  35.  36.  37.  38.  39.  40.
(PID.TID 0000.0001) DIAGNOSTICS_SET_POINTERS: Set levels for Outp.Stream: visc
(PID.TID 0000.0001)  Levels:       1.   2.   3.   4.   5.   6.   7.   8.   9.  10.  11.  12.  13.  14.  15.  16.  17.  18.  19.  20.
(PID.TID 0000.0001)  Levels:      21.  22.  23.  24.  25.  26.  27.  28.  29.  30.  31.  32.  33.  34.  35.  36.  37.  38.  39.  40.
(PID.TID 0000.0001) DIAGNOSTICS_SET_POINTERS: done
(PID.TID 0000.0001) ------------------------------------------------------------
(PID.TID 0000.0001) DIAGSTATS_SET_REGIONS: define no region
(PID.TID 0000.0001) ------------------------------------------------------------
(PID.TID 0000.0001)   space allocated for all stats-diags:     0 levels
(PID.TID 0000.0001) DIAGSTATS_SET_POINTERS: done
(PID.TID 0000.0001) ------------------------------------------------------------
(PID.TID 0000.0001) %MON fCori_max                    =   7.2900000000000E-05
(PID.TID 0000.0001) %MON fCori_min                    =   7.2900000000000E-05
(PID.TID 0000.0001) %MON fCori_mean                   =   7.2900000000001E-05
(PID.TID 0000.0001) %MON fCori_sd                     =   6.6407383064737E-19
(PID.TID 0000.0001) %MON fCoriG_max                   =   7.2900000000000E-05
(PID.TID 0000.0001) %MON fCoriG_min                   =   7.2900000000000E-05
(PID.TID 0000.0001) %MON fCoriG_mean                  =   7.2900000000001E-05
(PID.TID 0000.0001) %MON fCoriG_sd                    =   6.6407383064737E-19
(PID.TID 0000.0001) %MON fCoriCos_max                 =   0.0000000000000E+00
(PID.TID 0000.0001) %MON fCoriCos_min                 =   0.0000000000000E+00
(PID.TID 0000.0001) %MON fCoriCos_mean                =   0.0000000000000E+00
(PID.TID 0000.0001) %MON fCoriCos_sd                  =   0.0000000000000E+00
(PID.TID 0000.0001) INI_CG2D: CG2D normalisation factor =  5.0000000000000001E-03
(PID.TID 0000.0001) 
(PID.TID 0000.0001) CONFIG_CHECK: OK
(PID.TID 0000.0001) // =======================================================
(PID.TID 0000.0001) // Model configuration
(PID.TID 0000.0001) // =======================================================
(PID.TID 0000.0001) //
(PID.TID 0000.0001) // "Physical" paramters ( PARM01 in namelist )
(PID.TID 0000.0001) //
(PID.TID 0000.0001) buoyancyRelation = OCEANIC
(PID.TID 0000.0001) fluidIsAir  =  /* fluid major constituent is Air */
(PID.TID 0000.0001)                   F
(PID.TID 0000.0001)     ;
(PID.TID 0000.0001) fluidIsWater=  /* fluid major constituent is Water */
(PID.TID 0000.0001)                   T
(PID.TID 0000.0001)     ;
(PID.TID 0000.0001) usingPCoords =  /* use p (or p*) vertical coordinate */
(PID.TID 0000.0001)                   F
(PID.TID 0000.0001)     ;
(PID.TID 0000.0001) usingZCoords =  /* use z (or z*) vertical coordinate */
(PID.TID 0000.0001)                   T
(PID.TID 0000.0001)     ;
(PID.TID 0000.0001) tRef =   /* Reference temperature profile ( oC or K ) */
(PID.TID 0000.0001)    40 @  2.000000000000000E+01              /* K =  1: 40 */
(PID.TID 0000.0001)     ;
(PID.TID 0000.0001) sRef =   /* Reference salinity profile ( psu ) */
(PID.TID 0000.0001)    40 @  3.000000000000000E+01              /* K =  1: 40 */
(PID.TID 0000.0001)     ;
(PID.TID 0000.0001) viscAh =   /* Lateral eddy viscosity ( m^2/s ) */
(PID.TID 0000.0001)                 0.000000000000000E+00
(PID.TID 0000.0001)     ;
(PID.TID 0000.0001) viscAhMax =   /* Maximum lateral eddy viscosity ( m^2/s ) */
(PID.TID 0000.0001)                 1.000000000000000E+21
(PID.TID 0000.0001)     ;
(PID.TID 0000.0001) viscAhGrid =   /* Grid dependent lateral eddy viscosity ( non-dim. ) */
(PID.TID 0000.0001)                 0.000000000000000E+00
(PID.TID 0000.0001)     ;
(PID.TID 0000.0001) useFullLeith =   /* Use Full Form of Leith Viscosity on/off flag*/
(PID.TID 0000.0001)                   T
(PID.TID 0000.0001)     ;
(PID.TID 0000.0001) useStrainTensionVisc =   /* Use StrainTension Form of Viscous Operator on/off flag*/
(PID.TID 0000.0001)                   F
(PID.TID 0000.0001)     ;
(PID.TID 0000.0001) useAreaViscLength =   /* Use area for visc length instead of geom. mean*/
(PID.TID 0000.0001)                   F
(PID.TID 0000.0001)     ;
(PID.TID 0000.0001) viscC2leith = /* Leith harmonic visc. factor (on grad(vort),non-dim.) */
(PID.TID 0000.0001)                 0.000000000000000E+00
(PID.TID 0000.0001)     ;
(PID.TID 0000.0001) viscC2leithD = /* Leith harmonic viscosity factor (on grad(div),non-dim.) */
(PID.TID 0000.0001)                 0.000000000000000E+00
(PID.TID 0000.0001)     ;
(PID.TID 0000.0001) viscC2smag =   /* Smagorinsky harmonic viscosity factor (non-dim.) */
(PID.TID 0000.0001)                 0.000000000000000E+00
(PID.TID 0000.0001)     ;
(PID.TID 0000.0001) viscA4 =   /* Lateral biharmonic viscosity ( m^4/s ) */
(PID.TID 0000.0001)                 0.000000000000000E+00
(PID.TID 0000.0001)     ;
(PID.TID 0000.0001) viscA4Max =   /* Maximum biharmonic viscosity ( m^2/s ) */
(PID.TID 0000.0001)                 1.000000000000000E+21
(PID.TID 0000.0001)     ;
(PID.TID 0000.0001) viscA4Grid =   /* Grid dependent biharmonic viscosity ( non-dim. ) */
(PID.TID 0000.0001)                 0.000000000000000E+00
(PID.TID 0000.0001)     ;
(PID.TID 0000.0001) viscC4leith = /* Leith biharm viscosity factor (on grad(vort), non-dim.) */
(PID.TID 0000.0001)                 1.850000000000000E+00
(PID.TID 0000.0001)     ;
(PID.TID 0000.0001) viscC4leithD = /* Leith biharm viscosity factor (on grad(div), non-dim.) */
(PID.TID 0000.0001)                 1.850000000000000E+00
(PID.TID 0000.0001)     ;
(PID.TID 0000.0001) viscC4Smag = /* Smagorinsky biharm viscosity factor (non-dim) */
(PID.TID 0000.0001)                 1.000000000000000E+00
(PID.TID 0000.0001)     ;
(PID.TID 0000.0001) no_slip_sides =  /* Viscous BCs: No-slip sides */
(PID.TID 0000.0001)                   F
(PID.TID 0000.0001)     ;
(PID.TID 0000.0001) sideDragFactor = /* side-drag scaling factor (non-dim) */
(PID.TID 0000.0001)                 2.000000000000000E+00
(PID.TID 0000.0001)     ;
(PID.TID 0000.0001) viscAr =   /* Vertical eddy viscosity ( units of r^2/s ) */
(PID.TID 0000.0001)                 5.000000000000000E-05
(PID.TID 0000.0001)     ;
(PID.TID 0000.0001) no_slip_bottom =  /* Viscous BCs: No-slip bottom */
(PID.TID 0000.0001)                   F
(PID.TID 0000.0001)     ;
(PID.TID 0000.0001) bottomDragLinear = /* linear bottom-drag coefficient ( 1/s ) */
(PID.TID 0000.0001)                 0.000000000000000E+00
(PID.TID 0000.0001)     ;
(PID.TID 0000.0001) bottomDragQuadratic = /* quadratic bottom-drag coeff. ( 1/m ) */
(PID.TID 0000.0001)                 0.000000000000000E+00
(PID.TID 0000.0001)     ;
(PID.TID 0000.0001) diffKhT =   /* Laplacian diffusion of heat laterally ( m^2/s ) */
(PID.TID 0000.0001)                 0.000000000000000E+00
(PID.TID 0000.0001)     ;
(PID.TID 0000.0001) diffK4T =   /* Bihaarmonic diffusion of heat laterally ( m^4/s ) */
(PID.TID 0000.0001)                 0.000000000000000E+00
(PID.TID 0000.0001)     ;
(PID.TID 0000.0001) diffKhS =   /* Laplacian diffusion of salt laterally ( m^2/s ) */
(PID.TID 0000.0001)                 0.000000000000000E+00
(PID.TID 0000.0001)     ;
(PID.TID 0000.0001) diffK4S =   /* Bihaarmonic diffusion of salt laterally ( m^4/s ) */
(PID.TID 0000.0001)                 0.000000000000000E+00
(PID.TID 0000.0001)     ;
(PID.TID 0000.0001) diffKrNrT = /* vertical profile of vertical diffusion of Temp ( m^2/s )*/
(PID.TID 0000.0001)    40 @  0.000000000000000E+00              /* K =  1: 40 */
(PID.TID 0000.0001)     ;
(PID.TID 0000.0001) diffKrNrS = /* vertical profile of vertical diffusion of Salt ( m^2/s )*/
(PID.TID 0000.0001)    40 @  0.000000000000000E+00              /* K =  1: 40 */
(PID.TID 0000.0001)     ;
(PID.TID 0000.0001) diffKrBL79surf =   /* Surface diffusion for Bryan and Lewis 1979 ( m^2/s ) */
(PID.TID 0000.0001)                 0.000000000000000E+00
(PID.TID 0000.0001)     ;
(PID.TID 0000.0001) diffKrBL79deep =   /* Deep diffusion for Bryan and Lewis 1979 ( m^2/s ) */
(PID.TID 0000.0001)                 0.000000000000000E+00
(PID.TID 0000.0001)     ;
(PID.TID 0000.0001) diffKrBL79scl =   /* Depth scale for Bryan and Lewis 1979 ( m ) */
(PID.TID 0000.0001)                 2.000000000000000E+02
(PID.TID 0000.0001)     ;
(PID.TID 0000.0001) diffKrBL79Ho =   /* Turning depth for Bryan and Lewis 1979 ( m ) */
(PID.TID 0000.0001)                -2.000000000000000E+03
(PID.TID 0000.0001)     ;
(PID.TID 0000.0001) Equation of State : eosType = LINEAR ;
(PID.TID 0000.0001) tAlpha =   /* Linear EOS thermal expansion coefficient ( 1/oC ) */
(PID.TID 0000.0001)                 2.000000000000000E-04
(PID.TID 0000.0001)     ;
(PID.TID 0000.0001) sBeta =   /* Linear EOS haline contraction coefficient ( 1/psu ) */
(PID.TID 0000.0001)                 0.000000000000000E+00
(PID.TID 0000.0001)     ;
(PID.TID 0000.0001) rhonil =   /* Reference density ( kg/m^3 ) */
(PID.TID 0000.0001)                 1.035000000000000E+03
(PID.TID 0000.0001)     ;
(PID.TID 0000.0001) rhoConst =   /* Reference density ( kg/m^3 ) */
(PID.TID 0000.0001)                 1.035000000000000E+03
(PID.TID 0000.0001)     ;
(PID.TID 0000.0001) rhoFacC = /* normalized Reference density @ cell-Center (-) */
(PID.TID 0000.0001)    40 @  1.000000000000000E+00              /* K =  1: 40 */
(PID.TID 0000.0001)     ;
(PID.TID 0000.0001) rhoFacF = /* normalized Reference density @ W-Interface (-) */
(PID.TID 0000.0001)    41 @  1.000000000000000E+00              /* K =  1: 41 */
(PID.TID 0000.0001)     ;
(PID.TID 0000.0001) rhoConstFresh =   /* Reference density ( kg/m^3 ) */
(PID.TID 0000.0001)                 1.035000000000000E+03
(PID.TID 0000.0001)     ;
(PID.TID 0000.0001) gravity =   /* Gravitational acceleration ( m/s^2 ) */
(PID.TID 0000.0001)                 9.810000000000000E+00
(PID.TID 0000.0001)     ;
(PID.TID 0000.0001) gBaro =   /* Barotropic gravity ( m/s^2 ) */
(PID.TID 0000.0001)                 9.810000000000000E+00
(PID.TID 0000.0001)     ;
(PID.TID 0000.0001) rotationPeriod =   /* Rotation Period ( s ) */
(PID.TID 0000.0001)                 8.616400000000000E+04
(PID.TID 0000.0001)     ;
(PID.TID 0000.0001) omega =   /* Angular velocity ( rad/s ) */
(PID.TID 0000.0001)                 7.292123516990375E-05
(PID.TID 0000.0001)     ;
(PID.TID 0000.0001) f0 =   /* Reference coriolis parameter ( 1/s ) */
(PID.TID 0000.0001)                 7.290000000000000E-05
(PID.TID 0000.0001)     ;
(PID.TID 0000.0001) beta =   /* Beta ( 1/(m.s) ) */
(PID.TID 0000.0001)                 0.000000000000000E+00
(PID.TID 0000.0001)     ;
(PID.TID 0000.0001) freeSurfFac =   /* Implicit free surface factor */
(PID.TID 0000.0001)                 1.000000000000000E+00
(PID.TID 0000.0001)     ;
(PID.TID 0000.0001) implicitFreeSurface =   /* Implicit free surface on/off flag */
(PID.TID 0000.0001)                   T
(PID.TID 0000.0001)     ;
(PID.TID 0000.0001) rigidLid =   /* Rigid lid on/off flag */
(PID.TID 0000.0001)                   F
(PID.TID 0000.0001)     ;
(PID.TID 0000.0001) implicSurfPress =   /* Surface Pressure implicit factor (0-1)*/
(PID.TID 0000.0001)                 1.000000000000000E+00
(PID.TID 0000.0001)     ;
(PID.TID 0000.0001) implicDiv2Dflow =   /* Barot. Flow Div. implicit factor (0-1)*/
(PID.TID 0000.0001)                 1.000000000000000E+00
(PID.TID 0000.0001)     ;
(PID.TID 0000.0001) exactConserv =   /* Exact Volume Conservation on/off flag*/
(PID.TID 0000.0001)                   F
(PID.TID 0000.0001)     ;
(PID.TID 0000.0001) uniformLin_PhiSurf =   /* use uniform Bo_surf on/off flag*/
(PID.TID 0000.0001)                   T
(PID.TID 0000.0001)     ;
(PID.TID 0000.0001) nonlinFreeSurf =   /* Non-linear Free Surf. options (-1,0,1,2,3)*/
(PID.TID 0000.0001)                       0
(PID.TID 0000.0001)     ;
(PID.TID 0000.0001)      -1,0= Off ; 1,2,3= On, 2=+rescale gU,gV, 3=+update cg2d solv.
(PID.TID 0000.0001) hFacInf =   /* lower threshold for hFac (nonlinFreeSurf only)*/
(PID.TID 0000.0001)                 2.000000000000000E-01
(PID.TID 0000.0001)     ;
(PID.TID 0000.0001) hFacSup =   /* upper threshold for hFac (nonlinFreeSurf only)*/
(PID.TID 0000.0001)                 2.000000000000000E+00
(PID.TID 0000.0001)     ;
(PID.TID 0000.0001) select_rStar =   /* r* Coordinate options (not yet implemented)*/
(PID.TID 0000.0001)                       0
(PID.TID 0000.0001)     ;
(PID.TID 0000.0001) useRealFreshWaterFlux =   /* Real Fresh Water Flux on/off flag*/
(PID.TID 0000.0001)                   F
(PID.TID 0000.0001)     ;
(PID.TID 0000.0001) convertFW2Salt = /* convert F.W. Flux to Salt Flux (-1=use local S)(ppt)*/
(PID.TID 0000.0001)                 3.500000000000000E+01
(PID.TID 0000.0001)     ;
(PID.TID 0000.0001) use3Dsolver = /* use 3-D pressure solver on/off flag */
(PID.TID 0000.0001)                   F
(PID.TID 0000.0001)     ;
(PID.TID 0000.0001) nonHydrostatic =  /* Non-Hydrostatic on/off flag */
(PID.TID 0000.0001)                   F
(PID.TID 0000.0001)     ;
(PID.TID 0000.0001) nh_Am2 = /* Non-Hydrostatic terms scaling factor */
(PID.TID 0000.0001)                 1.000000000000000E+00
(PID.TID 0000.0001)     ;
(PID.TID 0000.0001) quasiHydrostatic = /* Quasi-Hydrostatic on/off flag */
(PID.TID 0000.0001)                   F
(PID.TID 0000.0001)     ;
(PID.TID 0000.0001) momStepping =  /* Momentum equation on/off flag */
(PID.TID 0000.0001)                   T
(PID.TID 0000.0001)     ;
(PID.TID 0000.0001) vectorInvariantMomentum= /* Vector-Invariant Momentum on/off */
(PID.TID 0000.0001)                   T
(PID.TID 0000.0001)     ;
(PID.TID 0000.0001) momAdvection =  /* Momentum advection on/off flag */
(PID.TID 0000.0001)                   T
(PID.TID 0000.0001)     ;
(PID.TID 0000.0001) momViscosity =  /* Momentum viscosity on/off flag */
(PID.TID 0000.0001)                   T
(PID.TID 0000.0001)     ;
(PID.TID 0000.0001) momImplVertAdv =/* Momentum implicit vert. advection on/off*/
(PID.TID 0000.0001)                   F
(PID.TID 0000.0001)     ;
(PID.TID 0000.0001) implicitViscosity = /* Implicit viscosity on/off flag */
(PID.TID 0000.0001)                   T
(PID.TID 0000.0001)     ;
(PID.TID 0000.0001) metricTerms =  /* metric-Terms on/off flag */
(PID.TID 0000.0001)                   F
(PID.TID 0000.0001)     ;
(PID.TID 0000.0001) useNHMTerms = /* Non-Hydrostatic Metric-Terms on/off */
(PID.TID 0000.0001)                   F
(PID.TID 0000.0001)     ;
(PID.TID 0000.0001) useConstantF =  /* use Constant f0 Coriolis flag */
(PID.TID 0000.0001)                   F
(PID.TID 0000.0001)     ;
(PID.TID 0000.0001) useBetaPlaneF = /* use Beta-Plane Coriolis flag */
(PID.TID 0000.0001)                   T
(PID.TID 0000.0001)     ;
(PID.TID 0000.0001) useSphereF  =   /* use Spherical Coriolis flag */
(PID.TID 0000.0001)                   F
(PID.TID 0000.0001)     ;
(PID.TID 0000.0001) use3dCoriolis = /* 3-D Coriolis on/off flag */
(PID.TID 0000.0001)                   F
(PID.TID 0000.0001)     ;
(PID.TID 0000.0001) useCoriolis =  /* Coriolis on/off flag */
(PID.TID 0000.0001)                   T
(PID.TID 0000.0001)     ;
(PID.TID 0000.0001) useCDscheme =  /* CD scheme on/off flag */
(PID.TID 0000.0001)                   F
(PID.TID 0000.0001)     ;
(PID.TID 0000.0001) useJamartWetPoints= /* Coriolis WetPoints method flag */
(PID.TID 0000.0001)                   T
(PID.TID 0000.0001)     ;
(PID.TID 0000.0001) useJamartMomAdv= /* V.I. Non-linear terms Jamart flag */
(PID.TID 0000.0001)                   F
(PID.TID 0000.0001)     ;
(PID.TID 0000.0001) SadournyCoriolis= /* Sadourny Coriolis discr. flag */
(PID.TID 0000.0001)                   F
(PID.TID 0000.0001)     ;
(PID.TID 0000.0001) upwindVorticity= /* Upwind bias vorticity flag */
(PID.TID 0000.0001)                   F
(PID.TID 0000.0001)     ;
(PID.TID 0000.0001) useAbsVorticity= /* Work with f+zeta in Coriolis */
(PID.TID 0000.0001)                   F
(PID.TID 0000.0001)     ;
(PID.TID 0000.0001) highOrderVorticity= /* High order interp. of vort. flag */
(PID.TID 0000.0001)                   F
(PID.TID 0000.0001)     ;
(PID.TID 0000.0001) upwindShear= /* Upwind vertical Shear advection flag */
(PID.TID 0000.0001)                   F
(PID.TID 0000.0001)     ;
(PID.TID 0000.0001) selectKEscheme= /* Kinetic Energy scheme selector */
(PID.TID 0000.0001)                       0
(PID.TID 0000.0001)     ;
(PID.TID 0000.0001) momForcing =  /* Momentum forcing on/off flag */
(PID.TID 0000.0001)                   T
(PID.TID 0000.0001)     ;
(PID.TID 0000.0001) momPressureForcing =  /* Momentum pressure term on/off flag */
(PID.TID 0000.0001)                   T
(PID.TID 0000.0001)     ;
(PID.TID 0000.0001) implicitIntGravWave= /* Implicit Internal Gravity Wave flag */
(PID.TID 0000.0001)                   F
(PID.TID 0000.0001)     ;
(PID.TID 0000.0001) staggerTimeStep =   /* Stagger time stepping on/off flag */
(PID.TID 0000.0001)                   T
(PID.TID 0000.0001)     ;
(PID.TID 0000.0001) multiDimAdvection =   /* enable/disable Multi-Dim Advection */
(PID.TID 0000.0001)                   T
(PID.TID 0000.0001)     ;
(PID.TID 0000.0001) useMultiDimAdvec =   /* Multi-Dim Advection is/is-not used */
(PID.TID 0000.0001)                   T
(PID.TID 0000.0001)     ;
(PID.TID 0000.0001) implicitDiffusion =/* Implicit Diffusion on/off flag */
(PID.TID 0000.0001)                   T
(PID.TID 0000.0001)     ;
(PID.TID 0000.0001) tempStepping =  /* Temperature equation on/off flag */
(PID.TID 0000.0001)                   T
(PID.TID 0000.0001)     ;
(PID.TID 0000.0001) tempAdvection=  /* Temperature advection on/off flag */
(PID.TID 0000.0001)                   T
(PID.TID 0000.0001)     ;
(PID.TID 0000.0001) tempImplVertAdv =/* Temp. implicit vert. advection on/off */
(PID.TID 0000.0001)                   F
(PID.TID 0000.0001)     ;
(PID.TID 0000.0001) tempForcing  =  /* Temperature forcing on/off flag */
(PID.TID 0000.0001)                   T
(PID.TID 0000.0001)     ;
(PID.TID 0000.0001) saltStepping =  /* Salinity equation on/off flag */
(PID.TID 0000.0001)                   T
(PID.TID 0000.0001)     ;
(PID.TID 0000.0001) saltAdvection=  /* Salinity advection on/off flag */
(PID.TID 0000.0001)                   T
(PID.TID 0000.0001)     ;
(PID.TID 0000.0001) saltImplVertAdv =/* Sali. implicit vert. advection on/off */
(PID.TID 0000.0001)                   F
(PID.TID 0000.0001)     ;
(PID.TID 0000.0001) saltForcing  =  /* Salinity forcing on/off flag */
(PID.TID 0000.0001)                   T
(PID.TID 0000.0001)     ;
(PID.TID 0000.0001)  readBinaryPrec = /* Precision used for reading binary files */
(PID.TID 0000.0001)                      64
(PID.TID 0000.0001)     ;
(PID.TID 0000.0001) writeBinaryPrec = /* Precision used for writing binary files */
(PID.TID 0000.0001)                      64
(PID.TID 0000.0001)     ;
(PID.TID 0000.0001)  globalFiles = /* write "global" (=not per tile) files */
(PID.TID 0000.0001)                   F
(PID.TID 0000.0001)     ;
(PID.TID 0000.0001)  useSingleCpuIO = /* only master MPI process does I/O */
(PID.TID 0000.0001)                   F
(PID.TID 0000.0001)     ;
(PID.TID 0000.0001)  debugMode  =  /* Debug Mode on/off flag */
(PID.TID 0000.0001)                   F
(PID.TID 0000.0001)     ;
(PID.TID 0000.0001)    debLevA  =  /* 1rst level of debugging */
(PID.TID 0000.0001)                       1
(PID.TID 0000.0001)     ;
(PID.TID 0000.0001)    debLevB  =  /* 2nd  level of debugging */
(PID.TID 0000.0001)                       2
(PID.TID 0000.0001)     ;
(PID.TID 0000.0001)  debugLevel =  /* select debugging level */
(PID.TID 0000.0001)                       1
(PID.TID 0000.0001)     ;
(PID.TID 0000.0001) //
(PID.TID 0000.0001) // Elliptic solver(s) paramters ( PARM02 in namelist )
(PID.TID 0000.0001) //
(PID.TID 0000.0001) cg2dMaxIters =   /* Upper limit on 2d con. grad iterations  */
(PID.TID 0000.0001)                    1000
(PID.TID 0000.0001)     ;
(PID.TID 0000.0001) cg2dChkResFreq =   /* 2d con. grad convergence test frequency */
(PID.TID 0000.0001)                       1
(PID.TID 0000.0001)     ;
(PID.TID 0000.0001) cg2dTargetResidual =   /* 2d con. grad target residual  */
(PID.TID 0000.0001)                 9.999999999999999E-12
(PID.TID 0000.0001)     ;
(PID.TID 0000.0001) cg2dTargetResWunit =   /* CG2d target residual [W units] */
(PID.TID 0000.0001)                -1.000000000000000E+00
(PID.TID 0000.0001)     ;
(PID.TID 0000.0001) cg2dPreCondFreq =   /* Freq. for updating cg2d preconditioner */
(PID.TID 0000.0001)                       1
(PID.TID 0000.0001)     ;
(PID.TID 0000.0001) //
(PID.TID 0000.0001) // Time stepping paramters ( PARM03 in namelist )
(PID.TID 0000.0001) //
(PID.TID 0000.0001) nIter0 =   /* Run starting timestep number  */
(PID.TID 0000.0001)                       0
(PID.TID 0000.0001)     ;
(PID.TID 0000.0001) nTimeSteps =   /* Number of timesteps */
(PID.TID 0000.0001)                      12
(PID.TID 0000.0001)     ;
(PID.TID 0000.0001) deltaTmom =   /* Momentum equation timestep ( s ) */
(PID.TID 0000.0001)                 1.200000000000000E+03
(PID.TID 0000.0001)     ;
(PID.TID 0000.0001) deltaTfreesurf =   /* FreeSurface equation timestep ( s ) */
(PID.TID 0000.0001)                 1.200000000000000E+03
(PID.TID 0000.0001)     ;
(PID.TID 0000.0001) dTtracerLev =   /* Tracer equation timestep ( s ) */
(PID.TID 0000.0001)    40 @  1.200000000000000E+03              /* K =  1: 40 */
(PID.TID 0000.0001)     ;
(PID.TID 0000.0001) deltaTClock  =   /* Model clock timestep ( s ) */
(PID.TID 0000.0001)                 1.200000000000000E+03
(PID.TID 0000.0001)     ;
(PID.TID 0000.0001) cAdjFreq =   /* Convective adjustment interval ( s ) */
(PID.TID 0000.0001)                 0.000000000000000E+00
(PID.TID 0000.0001)     ;
(PID.TID 0000.0001) momForcingOutAB = /* =1: take Momentum Forcing out of Adams-Bash. stepping */
(PID.TID 0000.0001)                       0
(PID.TID 0000.0001)     ;
(PID.TID 0000.0001) tracForcingOutAB = /* =1: take T,S,pTr Forcing out of Adams-Bash. stepping */
(PID.TID 0000.0001)                       0
(PID.TID 0000.0001)     ;
(PID.TID 0000.0001) momDissip_In_AB = /* put Dissipation Tendency in Adams-Bash. stepping */
(PID.TID 0000.0001)                   T
(PID.TID 0000.0001)     ;
(PID.TID 0000.0001) doAB_onGtGs = /* apply AB on Tendencies (rather than on T,S)*/
(PID.TID 0000.0001)                   T
(PID.TID 0000.0001)     ;
(PID.TID 0000.0001) abEps =   /* Adams-Bashforth-2 stabilizing weight */
(PID.TID 0000.0001)                 1.000000000000000E-02
(PID.TID 0000.0001)     ;
(PID.TID 0000.0001) baseTime =   /* Model base time ( s ). */
(PID.TID 0000.0001)                 0.000000000000000E+00
(PID.TID 0000.0001)     ;
(PID.TID 0000.0001) startTime =   /* Run start time ( s ). */
(PID.TID 0000.0001)                 0.000000000000000E+00
(PID.TID 0000.0001)     ;
(PID.TID 0000.0001) endTime =   /* Integration ending time ( s ). */
(PID.TID 0000.0001)                 1.440000000000000E+04
(PID.TID 0000.0001)     ;
(PID.TID 0000.0001) pChkPtFreq =   /* Permanent restart/checkpoint file interval ( s ). */
(PID.TID 0000.0001)                 0.000000000000000E+00
(PID.TID 0000.0001)     ;
(PID.TID 0000.0001) chkPtFreq =   /* Rolling restart/checkpoint file interval ( s ). */
(PID.TID 0000.0001)                 0.000000000000000E+00
(PID.TID 0000.0001)     ;
(PID.TID 0000.0001) pickup_write_mdsio =   /* Model IO flag. */
(PID.TID 0000.0001)                   F
(PID.TID 0000.0001)     ;
(PID.TID 0000.0001) pickup_read_mdsio =   /* Model IO flag. */
(PID.TID 0000.0001)                   F
(PID.TID 0000.0001)     ;
(PID.TID 0000.0001) pickup_write_mnc =   /* Model IO flag. */
(PID.TID 0000.0001)                   T
(PID.TID 0000.0001)     ;
(PID.TID 0000.0001) pickup_read_mnc =   /* Model IO flag. */
(PID.TID 0000.0001)                   T
(PID.TID 0000.0001)     ;
(PID.TID 0000.0001) pickup_write_immed =   /* Model IO flag. */
(PID.TID 0000.0001)                   F
(PID.TID 0000.0001)     ;
(PID.TID 0000.0001) dumpFreq =   /* Model state write out interval ( s ). */
(PID.TID 0000.0001)                 0.000000000000000E+00
(PID.TID 0000.0001)     ;
(PID.TID 0000.0001) dumpInitAndLast= /* write out Initial & Last iter. model state */
(PID.TID 0000.0001)                   T
(PID.TID 0000.0001)     ;
(PID.TID 0000.0001) snapshot_mdsio =   /* Model IO flag. */
(PID.TID 0000.0001)                   F
(PID.TID 0000.0001)     ;
(PID.TID 0000.0001) snapshot_mnc =   /* Model IO flag. */
(PID.TID 0000.0001)                   T
(PID.TID 0000.0001)     ;
(PID.TID 0000.0001) monitorFreq =   /* Monitor output interval ( s ). */
(PID.TID 0000.0001)                 1.200000000000000E+03
(PID.TID 0000.0001)     ;
(PID.TID 0000.0001) monitor_stdio =   /* Model IO flag. */
(PID.TID 0000.0001)                   T
(PID.TID 0000.0001)     ;
(PID.TID 0000.0001) monitor_mnc =   /* Model IO flag. */
(PID.TID 0000.0001)                   F
(PID.TID 0000.0001)     ;
(PID.TID 0000.0001) externForcingPeriod =   /* forcing period (s) */
(PID.TID 0000.0001)                 0.000000000000000E+00
(PID.TID 0000.0001)     ;
(PID.TID 0000.0001) externForcingCycle =   /* period of the cyle (s). */
(PID.TID 0000.0001)                 0.000000000000000E+00
(PID.TID 0000.0001)     ;
(PID.TID 0000.0001) tauThetaClimRelax =   /* relaxation time scale (s) */
(PID.TID 0000.0001)                 0.000000000000000E+00
(PID.TID 0000.0001)     ;
(PID.TID 0000.0001) tauSaltClimRelax =   /* relaxation time scale (s) */
(PID.TID 0000.0001)                 0.000000000000000E+00
(PID.TID 0000.0001)     ;
(PID.TID 0000.0001) latBandClimRelax =   /* max. Lat. where relaxation */
(PID.TID 0000.0001)                 7.800000000000000E+04
(PID.TID 0000.0001)     ;
(PID.TID 0000.0001) //
(PID.TID 0000.0001) // Gridding paramters ( PARM04 in namelist )
(PID.TID 0000.0001) //
(PID.TID 0000.0001) usingCartesianGrid = /* Cartesian coordinates flag ( True/False ) */
(PID.TID 0000.0001)                   T
(PID.TID 0000.0001)     ;
(PID.TID 0000.0001) usingCylindricalGrid = /* Cylindrical coordinates flag ( True/False ) */
(PID.TID 0000.0001)                   F
(PID.TID 0000.0001)     ;
(PID.TID 0000.0001) usingSphericalPolarGrid = /* Spherical coordinates flag ( True/False ) */
(PID.TID 0000.0001)                   F
(PID.TID 0000.0001)     ;
(PID.TID 0000.0001) usingCurvilinearGrid = /* Curvilinear coordinates flag ( True/False ) */
(PID.TID 0000.0001)                   F
(PID.TID 0000.0001)     ;
(PID.TID 0000.0001) Ro_SeaLevel = /* r(1) ( units of r ) */
(PID.TID 0000.0001)                 0.000000000000000E+00
(PID.TID 0000.0001)     ;
(PID.TID 0000.0001) rkSign =   /* index orientation relative to vertical coordinate */
(PID.TID 0000.0001)                -1.000000000000000E+00
(PID.TID 0000.0001)     ;
(PID.TID 0000.0001) gravitySign = /* gravity orientation relative to vertical coordinate */
(PID.TID 0000.0001)                -1.000000000000000E+00
(PID.TID 0000.0001)     ;
(PID.TID 0000.0001) horiVertRatio =   /* Ratio on units : Horiz - Vertical */
(PID.TID 0000.0001)                 1.000000000000000E+00
(PID.TID 0000.0001)     ;
(PID.TID 0000.0001) drC =   /* C spacing ( units of r ) */
(PID.TID 0000.0001)                 2.500000000000000E+00,      /* K =  1 */
(PID.TID 0000.0001)    39 @  5.000000000000000E+00              /* K =  2: 40 */
(PID.TID 0000.0001)     ;
(PID.TID 0000.0001) drF =   /* W spacing ( units of r ) */
(PID.TID 0000.0001)    40 @  5.000000000000000E+00              /* K =  1: 40 */
(PID.TID 0000.0001)     ;
(PID.TID 0000.0001) delX =   /* U spacing ( m - cartesian, degrees - spherical ) */
(PID.TID 0000.0001)    50 @  1.000000000000000E+03              /* I =  1: 50 */
(PID.TID 0000.0001)     ;
(PID.TID 0000.0001) delY =   /* V spacing ( m - cartesian, degrees - spherical ) */
(PID.TID 0000.0001)    26 @  1.000000000000000E+03              /* J =  1: 26 */
(PID.TID 0000.0001)     ;
(PID.TID 0000.0001) phiMin =    /* South edge (ignored - cartesian, degrees - spherical ) */
(PID.TID 0000.0001)                 0.000000000000000E+00
(PID.TID 0000.0001)     ;
(PID.TID 0000.0001) thetaMin =    /* West edge ( ignored - cartesian, degrees - spherical ) */
(PID.TID 0000.0001)                 0.000000000000000E+00
(PID.TID 0000.0001)     ;
(PID.TID 0000.0001) rSphere =  /* Radius ( ignored - cartesian, m - spherical ) */
(PID.TID 0000.0001)                 6.370000000000000E+06
(PID.TID 0000.0001)     ;
(PID.TID 0000.0001) deepAtmosphere = /* Deep/Shallow Atmosphere flag (True/False) */
(PID.TID 0000.0001)                   F
(PID.TID 0000.0001)     ;
(PID.TID 0000.0001) xcoord =   /* P-point X coord ( m - cartesian, degrees - spherical ) */
(PID.TID 0000.0001)                 5.000000000000000E+02,      /* I =  1 */
(PID.TID 0000.0001)                 1.500000000000000E+03,      /* I =  2 */
(PID.TID 0000.0001)                 2.500000000000000E+03,      /* I =  3 */
(PID.TID 0000.0001)                 3.500000000000000E+03,      /* I =  4 */
(PID.TID 0000.0001)                 4.500000000000000E+03,      /* I =  5 */
(PID.TID 0000.0001)                 5.500000000000000E+03,      /* I =  6 */
(PID.TID 0000.0001)                 6.500000000000000E+03,      /* I =  7 */
(PID.TID 0000.0001)                 7.500000000000000E+03,      /* I =  8 */
(PID.TID 0000.0001)                 8.500000000000000E+03,      /* I =  9 */
(PID.TID 0000.0001)                 9.500000000000000E+03,      /* I = 10 */
(PID.TID 0000.0001)                 1.050000000000000E+04,      /* I = 11 */
(PID.TID 0000.0001)                 1.150000000000000E+04,      /* I = 12 */
(PID.TID 0000.0001)                 1.250000000000000E+04,      /* I = 13 */
(PID.TID 0000.0001)                 1.350000000000000E+04,      /* I = 14 */
(PID.TID 0000.0001)                 1.450000000000000E+04,      /* I = 15 */
(PID.TID 0000.0001)                 1.550000000000000E+04,      /* I = 16 */
(PID.TID 0000.0001)                 1.650000000000000E+04,      /* I = 17 */
(PID.TID 0000.0001)                 1.750000000000000E+04,      /* I = 18 */
(PID.TID 0000.0001)                 1.850000000000000E+04,      /* I = 19 */
(PID.TID 0000.0001)                 1.950000000000000E+04,      /* I = 20 */
(PID.TID 0000.0001)                 2.050000000000000E+04,      /* I = 21 */
(PID.TID 0000.0001)                 2.150000000000000E+04,      /* I = 22 */
(PID.TID 0000.0001)                 2.250000000000000E+04,      /* I = 23 */
(PID.TID 0000.0001)                 2.350000000000000E+04,      /* I = 24 */
(PID.TID 0000.0001)                 2.450000000000000E+04,      /* I = 25 */
(PID.TID 0000.0001)                 2.550000000000000E+04,      /* I = 26 */
(PID.TID 0000.0001)                 2.650000000000000E+04,      /* I = 27 */
(PID.TID 0000.0001)                 2.750000000000000E+04,      /* I = 28 */
(PID.TID 0000.0001)                 2.850000000000000E+04,      /* I = 29 */
(PID.TID 0000.0001)                 2.950000000000000E+04,      /* I = 30 */
(PID.TID 0000.0001)                 3.050000000000000E+04,      /* I = 31 */
(PID.TID 0000.0001)                 3.150000000000000E+04,      /* I = 32 */
(PID.TID 0000.0001)                 3.250000000000000E+04,      /* I = 33 */
(PID.TID 0000.0001)                 3.350000000000000E+04,      /* I = 34 */
(PID.TID 0000.0001)                 3.450000000000000E+04,      /* I = 35 */
(PID.TID 0000.0001)                 3.550000000000000E+04,      /* I = 36 */
(PID.TID 0000.0001)                 3.650000000000000E+04,      /* I = 37 */
(PID.TID 0000.0001)                 3.750000000000000E+04,      /* I = 38 */
(PID.TID 0000.0001)                 3.850000000000000E+04,      /* I = 39 */
(PID.TID 0000.0001)                 3.950000000000000E+04,      /* I = 40 */
(PID.TID 0000.0001)                 4.050000000000000E+04,      /* I = 41 */
(PID.TID 0000.0001)                 4.150000000000000E+04,      /* I = 42 */
(PID.TID 0000.0001)                 4.250000000000000E+04,      /* I = 43 */
(PID.TID 0000.0001)                 4.350000000000000E+04,      /* I = 44 */
(PID.TID 0000.0001)                 4.450000000000000E+04,      /* I = 45 */
(PID.TID 0000.0001)                 4.550000000000000E+04,      /* I = 46 */
(PID.TID 0000.0001)                 4.650000000000000E+04,      /* I = 47 */
(PID.TID 0000.0001)                 4.750000000000000E+04,      /* I = 48 */
(PID.TID 0000.0001)                 4.850000000000000E+04,      /* I = 49 */
(PID.TID 0000.0001)                 4.950000000000000E+04       /* I = 50 */
(PID.TID 0000.0001)     ;
(PID.TID 0000.0001) ycoord =   /* P-point Y coord ( m - cartesian, degrees - spherical ) */
(PID.TID 0000.0001)                 5.000000000000000E+02,      /* J =  1 */
(PID.TID 0000.0001)                 1.500000000000000E+03,      /* J =  2 */
(PID.TID 0000.0001)                 2.500000000000000E+03,      /* J =  3 */
(PID.TID 0000.0001)                 3.500000000000000E+03,      /* J =  4 */
(PID.TID 0000.0001)                 4.500000000000000E+03,      /* J =  5 */
(PID.TID 0000.0001)                 5.500000000000000E+03,      /* J =  6 */
(PID.TID 0000.0001)                 6.500000000000000E+03,      /* J =  7 */
(PID.TID 0000.0001)                 7.500000000000000E+03,      /* J =  8 */
(PID.TID 0000.0001)                 8.500000000000000E+03,      /* J =  9 */
(PID.TID 0000.0001)                 9.500000000000000E+03,      /* J = 10 */
(PID.TID 0000.0001)                 1.050000000000000E+04,      /* J = 11 */
(PID.TID 0000.0001)                 1.150000000000000E+04,      /* J = 12 */
(PID.TID 0000.0001)                 1.250000000000000E+04,      /* J = 13 */
(PID.TID 0000.0001)                 1.350000000000000E+04,      /* J = 14 */
(PID.TID 0000.0001)                 1.450000000000000E+04,      /* J = 15 */
(PID.TID 0000.0001)                 1.550000000000000E+04,      /* J = 16 */
(PID.TID 0000.0001)                 1.650000000000000E+04,      /* J = 17 */
(PID.TID 0000.0001)                 1.750000000000000E+04,      /* J = 18 */
(PID.TID 0000.0001)                 1.850000000000000E+04,      /* J = 19 */
(PID.TID 0000.0001)                 1.950000000000000E+04,      /* J = 20 */
(PID.TID 0000.0001)                 2.050000000000000E+04,      /* J = 21 */
(PID.TID 0000.0001)                 2.150000000000000E+04,      /* J = 22 */
(PID.TID 0000.0001)                 2.250000000000000E+04,      /* J = 23 */
(PID.TID 0000.0001)                 2.350000000000000E+04,      /* J = 24 */
(PID.TID 0000.0001)                 2.450000000000000E+04,      /* J = 25 */
(PID.TID 0000.0001)                 2.550000000000000E+04       /* J = 26 */
(PID.TID 0000.0001)     ;
(PID.TID 0000.0001) rcoord =   /* P-point R coordinate (  units of r ) */
(PID.TID 0000.0001)                -2.500000000000000E+00,      /* K =  1 */
(PID.TID 0000.0001)                -7.500000000000000E+00,      /* K =  2 */
(PID.TID 0000.0001)                -1.250000000000000E+01,      /* K =  3 */
(PID.TID 0000.0001)                -1.750000000000000E+01,      /* K =  4 */
(PID.TID 0000.0001)                -2.250000000000000E+01,      /* K =  5 */
(PID.TID 0000.0001)                -2.750000000000000E+01,      /* K =  6 */
(PID.TID 0000.0001)                -3.250000000000000E+01,      /* K =  7 */
(PID.TID 0000.0001)                -3.750000000000000E+01,      /* K =  8 */
(PID.TID 0000.0001)                -4.250000000000000E+01,      /* K =  9 */
(PID.TID 0000.0001)                -4.750000000000000E+01,      /* K = 10 */
(PID.TID 0000.0001)                -5.250000000000000E+01,      /* K = 11 */
(PID.TID 0000.0001)                -5.750000000000000E+01,      /* K = 12 */
(PID.TID 0000.0001)                -6.250000000000000E+01,      /* K = 13 */
(PID.TID 0000.0001)                -6.750000000000000E+01,      /* K = 14 */
(PID.TID 0000.0001)                -7.250000000000000E+01,      /* K = 15 */
(PID.TID 0000.0001)                -7.750000000000000E+01,      /* K = 16 */
(PID.TID 0000.0001)                -8.250000000000000E+01,      /* K = 17 */
(PID.TID 0000.0001)                -8.750000000000000E+01,      /* K = 18 */
(PID.TID 0000.0001)                -9.250000000000000E+01,      /* K = 19 */
(PID.TID 0000.0001)                -9.750000000000000E+01,      /* K = 20 */
(PID.TID 0000.0001)                -1.025000000000000E+02,      /* K = 21 */
(PID.TID 0000.0001)                -1.075000000000000E+02,      /* K = 22 */
(PID.TID 0000.0001)                -1.125000000000000E+02,      /* K = 23 */
(PID.TID 0000.0001)                -1.175000000000000E+02,      /* K = 24 */
(PID.TID 0000.0001)                -1.225000000000000E+02,      /* K = 25 */
(PID.TID 0000.0001)                -1.275000000000000E+02,      /* K = 26 */
(PID.TID 0000.0001)                -1.325000000000000E+02,      /* K = 27 */
(PID.TID 0000.0001)                -1.375000000000000E+02,      /* K = 28 */
(PID.TID 0000.0001)                -1.425000000000000E+02,      /* K = 29 */
(PID.TID 0000.0001)                -1.475000000000000E+02,      /* K = 30 */
(PID.TID 0000.0001)                -1.525000000000000E+02,      /* K = 31 */
(PID.TID 0000.0001)                -1.575000000000000E+02,      /* K = 32 */
(PID.TID 0000.0001)                -1.625000000000000E+02,      /* K = 33 */
(PID.TID 0000.0001)                -1.675000000000000E+02,      /* K = 34 */
(PID.TID 0000.0001)                -1.725000000000000E+02,      /* K = 35 */
(PID.TID 0000.0001)                -1.775000000000000E+02,      /* K = 36 */
(PID.TID 0000.0001)                -1.825000000000000E+02,      /* K = 37 */
(PID.TID 0000.0001)                -1.875000000000000E+02,      /* K = 38 */
(PID.TID 0000.0001)                -1.925000000000000E+02,      /* K = 39 */
(PID.TID 0000.0001)                -1.975000000000000E+02       /* K = 40 */
(PID.TID 0000.0001)     ;
(PID.TID 0000.0001) rF =   /* W-Interf. R coordinate (  units of r ) */
(PID.TID 0000.0001)                 0.000000000000000E+00,      /* K =  1 */
(PID.TID 0000.0001)                -5.000000000000000E+00,      /* K =  2 */
(PID.TID 0000.0001)                -1.000000000000000E+01,      /* K =  3 */
(PID.TID 0000.0001)                -1.500000000000000E+01,      /* K =  4 */
(PID.TID 0000.0001)                -2.000000000000000E+01,      /* K =  5 */
(PID.TID 0000.0001)                -2.500000000000000E+01,      /* K =  6 */
(PID.TID 0000.0001)                -3.000000000000000E+01,      /* K =  7 */
(PID.TID 0000.0001)                -3.500000000000000E+01,      /* K =  8 */
(PID.TID 0000.0001)                -4.000000000000000E+01,      /* K =  9 */
(PID.TID 0000.0001)                -4.500000000000000E+01,      /* K = 10 */
(PID.TID 0000.0001)                -5.000000000000000E+01,      /* K = 11 */
(PID.TID 0000.0001)                -5.500000000000000E+01,      /* K = 12 */
(PID.TID 0000.0001)                -6.000000000000000E+01,      /* K = 13 */
(PID.TID 0000.0001)                -6.500000000000000E+01,      /* K = 14 */
(PID.TID 0000.0001)                -7.000000000000000E+01,      /* K = 15 */
(PID.TID 0000.0001)                -7.500000000000000E+01,      /* K = 16 */
(PID.TID 0000.0001)                -8.000000000000000E+01,      /* K = 17 */
(PID.TID 0000.0001)                -8.500000000000000E+01,      /* K = 18 */
(PID.TID 0000.0001)                -9.000000000000000E+01,      /* K = 19 */
(PID.TID 0000.0001)                -9.500000000000000E+01,      /* K = 20 */
(PID.TID 0000.0001)                -1.000000000000000E+02,      /* K = 21 */
(PID.TID 0000.0001)                -1.050000000000000E+02,      /* K = 22 */
(PID.TID 0000.0001)                -1.100000000000000E+02,      /* K = 23 */
(PID.TID 0000.0001)                -1.150000000000000E+02,      /* K = 24 */
(PID.TID 0000.0001)                -1.200000000000000E+02,      /* K = 25 */
(PID.TID 0000.0001)                -1.250000000000000E+02,      /* K = 26 */
(PID.TID 0000.0001)                -1.300000000000000E+02,      /* K = 27 */
(PID.TID 0000.0001)                -1.350000000000000E+02,      /* K = 28 */
(PID.TID 0000.0001)                -1.400000000000000E+02,      /* K = 29 */
(PID.TID 0000.0001)                -1.450000000000000E+02,      /* K = 30 */
(PID.TID 0000.0001)                -1.500000000000000E+02,      /* K = 31 */
(PID.TID 0000.0001)                -1.550000000000000E+02,      /* K = 32 */
(PID.TID 0000.0001)                -1.600000000000000E+02,      /* K = 33 */
(PID.TID 0000.0001)                -1.650000000000000E+02,      /* K = 34 */
(PID.TID 0000.0001)                -1.700000000000000E+02,      /* K = 35 */
(PID.TID 0000.0001)                -1.750000000000000E+02,      /* K = 36 */
(PID.TID 0000.0001)                -1.800000000000000E+02,      /* K = 37 */
(PID.TID 0000.0001)                -1.850000000000000E+02,      /* K = 38 */
(PID.TID 0000.0001)                -1.900000000000000E+02,      /* K = 39 */
(PID.TID 0000.0001)                -1.950000000000000E+02,      /* K = 40 */
(PID.TID 0000.0001)                -2.000000000000000E+02       /* K = 41 */
(PID.TID 0000.0001)     ;
(PID.TID 0000.0001) deepFacC = /* deep-model grid factor @ cell-Center (-) */
(PID.TID 0000.0001)    40 @  1.000000000000000E+00              /* K =  1: 40 */
(PID.TID 0000.0001)     ;
(PID.TID 0000.0001) deepFacF = /* deep-model grid factor @ W-Interface (-) */
(PID.TID 0000.0001)    41 @  1.000000000000000E+00              /* K =  1: 41 */
(PID.TID 0000.0001)     ;
(PID.TID 0000.0001) dBdrRef = /* Vertical gradient of reference boyancy [(m/s/r)^2)] */
(PID.TID 0000.0001)    40 @  0.000000000000000E+00              /* K =  1: 40 */
(PID.TID 0000.0001)     ;
(PID.TID 0000.0001) dxF =  /* dxF(:,1,:,1) ( units: m ) */
(PID.TID 0000.0001)    50 @  1.000000000000000E+03              /* I =  1: 50 */
(PID.TID 0000.0001)     ;
(PID.TID 0000.0001) dxF =  /* dxF(1,:,1,:) ( units: m ) */
(PID.TID 0000.0001)    26 @  1.000000000000000E+03              /* J =  1: 26 */
(PID.TID 0000.0001)     ;
(PID.TID 0000.0001) dyF =  /* dyF(:,1,:,1) ( units: m ) */
(PID.TID 0000.0001)    50 @  1.000000000000000E+03              /* I =  1: 50 */
(PID.TID 0000.0001)     ;
(PID.TID 0000.0001) dyF =  /* dyF(1,:,1,:) ( units: m ) */
(PID.TID 0000.0001)    26 @  1.000000000000000E+03              /* J =  1: 26 */
(PID.TID 0000.0001)     ;
(PID.TID 0000.0001) dxG =  /* dxG(:,1,:,1) ( units: m ) */
(PID.TID 0000.0001)    50 @  1.000000000000000E+03              /* I =  1: 50 */
(PID.TID 0000.0001)     ;
(PID.TID 0000.0001) dxG =  /* dxG(1,:,1,:) ( units: m ) */
(PID.TID 0000.0001)    26 @  1.000000000000000E+03              /* J =  1: 26 */
(PID.TID 0000.0001)     ;
(PID.TID 0000.0001) dyG =  /* dyG(:,1,:,1) ( units: m ) */
(PID.TID 0000.0001)    50 @  1.000000000000000E+03              /* I =  1: 50 */
(PID.TID 0000.0001)     ;
(PID.TID 0000.0001) dyG =  /* dyG(1,:,1,:) ( units: m ) */
(PID.TID 0000.0001)    26 @  1.000000000000000E+03              /* J =  1: 26 */
(PID.TID 0000.0001)     ;
(PID.TID 0000.0001) dxC =  /* dxC(:,1,:,1) ( units: m ) */
(PID.TID 0000.0001)    50 @  1.000000000000000E+03              /* I =  1: 50 */
(PID.TID 0000.0001)     ;
(PID.TID 0000.0001) dxC =  /* dxC(1,:,1,:) ( units: m ) */
(PID.TID 0000.0001)    26 @  1.000000000000000E+03              /* J =  1: 26 */
(PID.TID 0000.0001)     ;
(PID.TID 0000.0001) dyC =  /* dyC(:,1,:,1) ( units: m ) */
(PID.TID 0000.0001)    50 @  1.000000000000000E+03              /* I =  1: 50 */
(PID.TID 0000.0001)     ;
(PID.TID 0000.0001) dyC =  /* dyC(1,:,1,:) ( units: m ) */
(PID.TID 0000.0001)    26 @  1.000000000000000E+03              /* J =  1: 26 */
(PID.TID 0000.0001)     ;
(PID.TID 0000.0001) dxV =  /* dxV(:,1,:,1) ( units: m ) */
(PID.TID 0000.0001)    50 @  1.000000000000000E+03              /* I =  1: 50 */
(PID.TID 0000.0001)     ;
(PID.TID 0000.0001) dxV =  /* dxV(1,:,1,:) ( units: m ) */
(PID.TID 0000.0001)    26 @  1.000000000000000E+03              /* J =  1: 26 */
(PID.TID 0000.0001)     ;
(PID.TID 0000.0001) dyU =  /* dyU(:,1,:,1) ( units: m ) */
(PID.TID 0000.0001)    50 @  1.000000000000000E+03              /* I =  1: 50 */
(PID.TID 0000.0001)     ;
(PID.TID 0000.0001) dyU =  /* dyU(1,:,1,:) ( units: m ) */
(PID.TID 0000.0001)    26 @  1.000000000000000E+03              /* J =  1: 26 */
(PID.TID 0000.0001)     ;
(PID.TID 0000.0001) rA  =  /* rA (:,1,:,1) ( units: m^2 ) */
(PID.TID 0000.0001)    50 @  1.000000000000000E+06              /* I =  1: 50 */
(PID.TID 0000.0001)     ;
(PID.TID 0000.0001) rA  =  /* rA (1,:,1,:) ( units: m^2 ) */
(PID.TID 0000.0001)    26 @  1.000000000000000E+06              /* J =  1: 26 */
(PID.TID 0000.0001)     ;
(PID.TID 0000.0001) rAw =  /* rAw(:,1,:,1) ( units: m^2 ) */
(PID.TID 0000.0001)    50 @  1.000000000000000E+06              /* I =  1: 50 */
(PID.TID 0000.0001)     ;
(PID.TID 0000.0001) rAw =  /* rAw(1,:,1,:) ( units: m^2 ) */
(PID.TID 0000.0001)    26 @  1.000000000000000E+06              /* J =  1: 26 */
(PID.TID 0000.0001)     ;
(PID.TID 0000.0001) rAs =  /* rAs(:,1,:,1) ( units: m^2 ) */
(PID.TID 0000.0001)    50 @  1.000000000000000E+06              /* I =  1: 50 */
(PID.TID 0000.0001)     ;
(PID.TID 0000.0001) rAs =  /* rAs(1,:,1,:) ( units: m^2 ) */
(PID.TID 0000.0001)    26 @  1.000000000000000E+06              /* J =  1: 26 */
(PID.TID 0000.0001)     ;
(PID.TID 0000.0001) globalArea = /* Integrated horizontal Area (m^2) */
(PID.TID 0000.0001)                 1.250000000000000E+09
(PID.TID 0000.0001)     ;
(PID.TID 0000.0001) // =======================================================
(PID.TID 0000.0001) // End of Model config. summary
(PID.TID 0000.0001) // =======================================================
(PID.TID 0000.0001) 
(PID.TID 0000.0001)  MDSREADFIELD: opening global file: thetaInitial.bin
(PID.TID 0000.0001) // =======================================================
(PID.TID 0000.0001) // Field Initial Temperature at iteration          1
(PID.TID 0000.0001) // CMIN =          1.697960818898681E+01
(PID.TID 0000.0001) // CMAX =          1.702039187270994E+01
(PID.TID 0000.0001) // CINT =          1.510506804560531E-03
(PID.TID 0000.0001) // SYMBOLS (CMIN->CMAX): -abcdefghijklmnopqrstuvwxyz+
(PID.TID 0000.0001) //                  0.0: .
(PID.TID 0000.0001) // RANGE I (Lo:Hi:Step):(   1:  50:   1)
(PID.TID 0000.0001) // RANGE J (Lo:Hi:Step):(  26:   1:  -1)
(PID.TID 0000.0001) // RANGE K (Lo:Hi:Step):(   1:   1:   1)
(PID.TID 0000.0001) // =======================================================
(PID.TID 0000.0001) K =   1
(PID.TID 0000.0001)                I=10      I=20      I=30      I=40      I=50
(PID.TID 0000.0001) |--J--|123456789|123456789|123456789|123456789|123456789|
(PID.TID 0000.0001)     26 ..................................................
(PID.TID 0000.0001)     25 --------------------------------------------------
(PID.TID 0000.0001)     24 --------------------------------------------------
(PID.TID 0000.0001)     23 --------------------------------------------------
(PID.TID 0000.0001)     22 --------------------------------------------------
(PID.TID 0000.0001)     21 --------------------------------------------------
(PID.TID 0000.0001)     20 --------------------------------------------------
(PID.TID 0000.0001)     19 --------------------------------------------------
(PID.TID 0000.0001)     18 --------------------------------------------------
(PID.TID 0000.0001)     17 --------------------------------------------------
(PID.TID 0000.0001)     16 aaaaaaaaaaaaaaaaaaaaaaaaaaaaaaaaaaaaaaaaaaaaaaaaaa
(PID.TID 0000.0001)     15 cccccccccccccccccccccccccccccccccccccccccccccccccc
(PID.TID 0000.0001)     14 gggggggggggggggggggggggggggggggggggggggggggggggggg
(PID.TID 0000.0001)     13 nnnnnnmnnnmnmmnmnnnnmnmmnmmnnnmnmnnmnnmmnnmmnmnmmn
(PID.TID 0000.0001)     12 tttttttttttttttttttttttttttttttttttttttttttttttttt
(PID.TID 0000.0001)     11 xxxxxxxxxxxxxxxxxxxxxxxxxxxxxxxxxxxxxxxxxxxxxxxxxx
(PID.TID 0000.0001)     10 zzzzzzzzzzzzzzzzzzzzzzzzzzzzzzzzzzzzzzzzzzzzzzzzzz
(PID.TID 0000.0001)      9 ++++++++++++++++++++++++++++++++++++++++++++++++++
(PID.TID 0000.0001)      8 ++++++++++++++++++++++++++++++++++++++++++++++++++
(PID.TID 0000.0001)      7 ++++++++++++++++++++++++++++++++++++++++++++++++++
(PID.TID 0000.0001)      6 ++++++++++++++++++++++++++++++++++++++++++++++++++
(PID.TID 0000.0001)      5 ++++++++++++++++++++++++++++++++++++++++++++++++++
(PID.TID 0000.0001)      4 ++++++++++++++++++++++++++++++++++++++++++++++++++
(PID.TID 0000.0001)      3 ++++++++++++++++++++++++++++++++++++++++++++++++++
(PID.TID 0000.0001)      2 ++++++++++++++++++++++++++++++++++++++++++++++++++
(PID.TID 0000.0001)      1 ++++++++++++++++++++++++++++++++++++++++++++++++++
(PID.TID 0000.0001) // =======================================================
(PID.TID 0000.0001) // END OF FIELD                                          =
(PID.TID 0000.0001) // =======================================================
(PID.TID 0000.0001) 
(PID.TID 0000.0001)  MDSREADFIELD: opening global file: spiceInitial.bin
(PID.TID 0000.0001) // =======================================================
(PID.TID 0000.0001) // Field Initial Salinity at iteration          1
(PID.TID 0000.0001) // CMIN =          1.697961298285419E+01
(PID.TID 0000.0001) // CMAX =          1.702038710930990E+01
(PID.TID 0000.0001) // CINT =          1.510152831693316E-03
(PID.TID 0000.0001) // SYMBOLS (CMIN->CMAX): -abcdefghijklmnopqrstuvwxyz+
(PID.TID 0000.0001) //                  0.0: .
(PID.TID 0000.0001) // RANGE I (Lo:Hi:Step):(   1:  50:   1)
(PID.TID 0000.0001) // RANGE J (Lo:Hi:Step):(  26:   1:  -1)
(PID.TID 0000.0001) // RANGE K (Lo:Hi:Step):(   1:   1:   1)
(PID.TID 0000.0001) // =======================================================
(PID.TID 0000.0001) K =   1
(PID.TID 0000.0001)                I=10      I=20      I=30      I=40      I=50
(PID.TID 0000.0001) |--J--|123456789|123456789|123456789|123456789|123456789|
(PID.TID 0000.0001)     26 ..................................................
(PID.TID 0000.0001)     25 +++++++++zxtmgca------------------acgmtxz+++++++++
(PID.TID 0000.0001)     24 +++++++++zxtmgca------------------acgmtxz+++++++++
(PID.TID 0000.0001)     23 +++++++++zxtmgca------------------acgmtxz+++++++++
(PID.TID 0000.0001)     22 +++++++++zxtmgca------------------acgmtxz+++++++++
(PID.TID 0000.0001)     21 +++++++++zxtmgca------------------acgmtxz+++++++++
(PID.TID 0000.0001)     20 +++++++++zxtmgca------------------acgmtxz+++++++++
(PID.TID 0000.0001)     19 +++++++++zxtmgca------------------acgmtxz+++++++++
(PID.TID 0000.0001)     18 +++++++++zxtmgca------------------acgmtxz+++++++++
(PID.TID 0000.0001)     17 +++++++++zxtmgca------------------acgmtxz+++++++++
(PID.TID 0000.0001)     16 +++++++++zxtmgca------------------acgmtxz+++++++++
(PID.TID 0000.0001)     15 +++++++++zxtmgca------------------acgmtxz+++++++++
(PID.TID 0000.0001)     14 +++++++++zxtmgca------------------acgmtxz+++++++++
(PID.TID 0000.0001)     13 +++++++++zxtmgca------------------acgmtxz+++++++++
(PID.TID 0000.0001)     12 +++++++++zxtmgca------------------acgmtxz+++++++++
(PID.TID 0000.0001)     11 +++++++++zxtmgca------------------acgmtxz+++++++++
(PID.TID 0000.0001)     10 +++++++++zxtmgca------------------acgmtxz+++++++++
(PID.TID 0000.0001)      9 +++++++++zxtmgca------------------acgmtxz+++++++++
(PID.TID 0000.0001)      8 +++++++++zxtmgca------------------acgmtxz+++++++++
(PID.TID 0000.0001)      7 +++++++++zxtmgca------------------acgmtxz+++++++++
(PID.TID 0000.0001)      6 +++++++++zxtmgca------------------acgmtxz+++++++++
(PID.TID 0000.0001)      5 +++++++++zxtmgca------------------acgmtxz+++++++++
(PID.TID 0000.0001)      4 +++++++++zxtmgca------------------acgmtxz+++++++++
(PID.TID 0000.0001)      3 +++++++++zxtmgca------------------acgmtxz+++++++++
(PID.TID 0000.0001)      2 +++++++++zxtmgca------------------acgmtxz+++++++++
(PID.TID 0000.0001)      1 +++++++++zxtmgca------------------acgmtxz+++++++++
(PID.TID 0000.0001) // =======================================================
(PID.TID 0000.0001) // END OF FIELD                                          =
(PID.TID 0000.0001) // =======================================================
(PID.TID 0000.0001) 
(PID.TID 0000.0001) Start initial hydrostatic pressure computation
(PID.TID 0000.0001) Pressure is predetermined for buoyancyRelation OCEANIC
(PID.TID 0000.0001) 
(PID.TID 0000.0001)  write diagnostics summary to file ioUnit:      6
Iter.Nb:         0 ; Time(s):  0.0000000000000E+00
------------------------------------------------------------------------
2D/3D diagnostics: Number of lists:     2
------------------------------------------------------------------------
listId=   1 ; file name: mom
 nFlds, nActive,       freq     &   phase        , nLev                 
   5  |   5  |      7200.000000         0.000000 |  40
 levels:   1   2   3   4   5   6   7   8   9  10  11  12  13  14  15  16  17  18  19  20  21  22  23  24  25  26  27  28  29  30  31  32  33  34  35  36  37  38  39  40
 diag#| name   | ipt  | iMate| kLev| count | mate.C|                    
  133 |momKE   |    1 |    0 |  40 |     0 |
  134 |momHDiv |   41 |    0 |  40 |     0 |
  135 |momVort3|   81 |    0 |  40 |     0 |
  136 |Strain  |  121 |    0 |  40 |     0 |
  137 |Tension |  161 |    0 |  40 |     0 |
------------------------------------------------------------------------
listId=   2 ; file name: visc
 nFlds, nActive,       freq     &   phase        , nLev                 
  24  |  24  |      7200.000000         0.000000 |  40
 levels:   1   2   3   4   5   6   7   8   9  10  11  12  13  14  15  16  17  18  19  20  21  22  23  24  25  26  27  28  29  30  31  32  33  34  35  36  37  38  39  40
 diag#| name   | ipt  | iMate| kLev| count | mate.C|                    
  109 |VISCAHD |  201 |    0 |  40 |     0 |
  110 |VISCA4D |  241 |    0 |  40 |     0 |
  107 |VISCAHZ |  281 |    0 |  40 |     0 |
  108 |VISCA4Z |  321 |    0 |  40 |     0 |
  115 |VAHDMAX |  361 |    0 |  40 |     0 |
  116 |VA4DMAX |  401 |    0 |  40 |     0 |
  113 |VAHZMAX |  441 |    0 |  40 |     0 |
  114 |VA4ZMAX |  481 |    0 |  40 |     0 |
  119 |VAHDMIN |  521 |    0 |  40 |     0 |
  120 |VA4DMIN |  561 |    0 |  40 |     0 |
  117 |VAHZMIN |  601 |    0 |  40 |     0 |
  118 |VA4ZMIN |  641 |    0 |  40 |     0 |
  123 |VAHDLTH |  681 |    0 |  40 |     0 |
  124 |VA4DLTH |  721 |    0 |  40 |     0 |
  121 |VAHZLTH |  761 |    0 |  40 |     0 |
  122 |VA4ZLTH |  801 |    0 |  40 |     0 |
  127 |VAHDLTHD|  841 |    0 |  40 |     0 |
  128 |VA4DLTHD|  881 |    0 |  40 |     0 |
  125 |VAHZLTHD|  921 |    0 |  40 |     0 |
  126 |VA4ZLTHD|  961 |    0 |  40 |     0 |
  131 |VAHDSMAG| 1001 |    0 |  40 |     0 |
  132 |VA4DSMAG| 1041 |    0 |  40 |     0 |
  129 |VAHZSMAG| 1081 |    0 |  40 |     0 |
  130 |VA4ZSMAG| 1121 |    0 |  40 |     0 |
------------------------------------------------------------------------
Global & Regional Statistics diagnostics: Number of lists:     0
------------------------------------------------------------------------
(PID.TID 0000.0001) // =======================================================
(PID.TID 0000.0001) // Model current state
(PID.TID 0000.0001) // =======================================================
(PID.TID 0000.0001) 
(PID.TID 0000.0001) // =======================================================
(PID.TID 0000.0001) // Begin MONITOR dynamic field statistics
(PID.TID 0000.0001) // =======================================================
(PID.TID 0000.0001) %MON time_tsnumber                =                     0
(PID.TID 0000.0001) %MON time_secondsf                =   0.0000000000000E+00
(PID.TID 0000.0001) %MON dynstat_eta_max              =   0.0000000000000E+00
(PID.TID 0000.0001) %MON dynstat_eta_min              =   0.0000000000000E+00
(PID.TID 0000.0001) %MON dynstat_eta_mean             =   0.0000000000000E+00
(PID.TID 0000.0001) %MON dynstat_eta_sd               =   0.0000000000000E+00
(PID.TID 0000.0001) %MON dynstat_eta_del2             =   0.0000000000000E+00
(PID.TID 0000.0001) %MON dynstat_uvel_max             =   0.0000000000000E+00
(PID.TID 0000.0001) %MON dynstat_uvel_min             =   0.0000000000000E+00
(PID.TID 0000.0001) %MON dynstat_uvel_mean            =   0.0000000000000E+00
(PID.TID 0000.0001) %MON dynstat_uvel_sd              =   0.0000000000000E+00
(PID.TID 0000.0001) %MON dynstat_uvel_del2            =   0.0000000000000E+00
(PID.TID 0000.0001) %MON dynstat_vvel_max             =   0.0000000000000E+00
(PID.TID 0000.0001) %MON dynstat_vvel_min             =   0.0000000000000E+00
(PID.TID 0000.0001) %MON dynstat_vvel_mean            =   0.0000000000000E+00
(PID.TID 0000.0001) %MON dynstat_vvel_sd              =   0.0000000000000E+00
(PID.TID 0000.0001) %MON dynstat_vvel_del2            =   0.0000000000000E+00
(PID.TID 0000.0001) %MON dynstat_wvel_max             =   0.0000000000000E+00
(PID.TID 0000.0001) %MON dynstat_wvel_min             =   0.0000000000000E+00
(PID.TID 0000.0001) %MON dynstat_wvel_mean            =   0.0000000000000E+00
(PID.TID 0000.0001) %MON dynstat_wvel_sd              =   0.0000000000000E+00
(PID.TID 0000.0001) %MON dynstat_wvel_del2            =   0.0000000000000E+00
(PID.TID 0000.0001) %MON dynstat_theta_max            =   1.7020391872710E+01
(PID.TID 0000.0001) %MON dynstat_theta_min            =   1.6979608188987E+01
(PID.TID 0000.0001) %MON dynstat_theta_mean           =   1.6999999951796E+01
(PID.TID 0000.0001) %MON dynstat_theta_sd             =   1.8685323590466E-02
(PID.TID 0000.0001) %MON dynstat_theta_del2           =   1.8923397613303E-04
(PID.TID 0000.0001) %MON dynstat_salt_max             =   1.7020387109310E+01
(PID.TID 0000.0001) %MON dynstat_salt_min             =   1.6979612982854E+01
(PID.TID 0000.0001) %MON dynstat_salt_mean            =   1.7000000005831E+01
(PID.TID 0000.0001) %MON dynstat_salt_sd              =   1.8685329922586E-02
(PID.TID 0000.0001) %MON dynstat_salt_del2            =   1.8842697543015E-04
(PID.TID 0000.0001) %MON dynstat_sst_max              =   1.7020391872710E+01
(PID.TID 0000.0001) %MON dynstat_sst_min              =   1.6979608188987E+01
(PID.TID 0000.0001) %MON dynstat_sst_mean             =   1.6999999951797E+01
(PID.TID 0000.0001) %MON dynstat_sst_sd               =   1.8685323590465E-02
(PID.TID 0000.0001) %MON dynstat_sst_del2             =   1.8923397613304E-04
(PID.TID 0000.0001) %MON dynstat_sss_max              =   1.7020387109310E+01
(PID.TID 0000.0001) %MON dynstat_sss_min              =   1.6979612982854E+01
(PID.TID 0000.0001) %MON dynstat_sss_mean             =   1.7000000005832E+01
(PID.TID 0000.0001) %MON dynstat_sss_sd               =   1.8685329922587E-02
(PID.TID 0000.0001) %MON dynstat_sss_del2             =   1.8842697543015E-04
(PID.TID 0000.0001) %MON extforcing_qnet_max          =   0.0000000000000E+00
(PID.TID 0000.0001) %MON extforcing_qnet_min          =   0.0000000000000E+00
(PID.TID 0000.0001) %MON extforcing_qnet_mean         =   0.0000000000000E+00
(PID.TID 0000.0001) %MON extforcing_qnet_sd           =   0.0000000000000E+00
(PID.TID 0000.0001) %MON extforcing_qnet_del2         =   0.0000000000000E+00
(PID.TID 0000.0001) %MON extforcing_qsw_max           =   0.0000000000000E+00
(PID.TID 0000.0001) %MON extforcing_qsw_min           =   0.0000000000000E+00
(PID.TID 0000.0001) %MON extforcing_qsw_mean          =   0.0000000000000E+00
(PID.TID 0000.0001) %MON extforcing_qsw_sd            =   0.0000000000000E+00
(PID.TID 0000.0001) %MON extforcing_qsw_del2          =   0.0000000000000E+00
(PID.TID 0000.0001) %MON extforcing_empmr_max         =   0.0000000000000E+00
(PID.TID 0000.0001) %MON extforcing_empmr_min         =   0.0000000000000E+00
(PID.TID 0000.0001) %MON extforcing_empmr_mean        =   0.0000000000000E+00
(PID.TID 0000.0001) %MON extforcing_empmr_sd          =   0.0000000000000E+00
(PID.TID 0000.0001) %MON extforcing_empmr_del2        =   0.0000000000000E+00
(PID.TID 0000.0001) %MON extforcing_fu_max            =   0.0000000000000E+00
(PID.TID 0000.0001) %MON extforcing_fu_min            =   0.0000000000000E+00
(PID.TID 0000.0001) %MON extforcing_fu_mean           =   0.0000000000000E+00
(PID.TID 0000.0001) %MON extforcing_fu_sd             =   0.0000000000000E+00
(PID.TID 0000.0001) %MON extforcing_fu_del2           =   0.0000000000000E+00
(PID.TID 0000.0001) %MON extforcing_fv_max            =   0.0000000000000E+00
(PID.TID 0000.0001) %MON extforcing_fv_min            =   0.0000000000000E+00
(PID.TID 0000.0001) %MON extforcing_fv_mean           =   0.0000000000000E+00
(PID.TID 0000.0001) %MON extforcing_fv_sd             =   0.0000000000000E+00
(PID.TID 0000.0001) %MON extforcing_fv_del2           =   0.0000000000000E+00
(PID.TID 0000.0001) %MON advcfl_uvel_max              =   0.0000000000000E+00
(PID.TID 0000.0001) %MON advcfl_vvel_max              =   0.0000000000000E+00
(PID.TID 0000.0001) %MON advcfl_wvel_max              =   0.0000000000000E+00
(PID.TID 0000.0001) %MON advcfl_W_hf_max              =   0.0000000000000E+00
(PID.TID 0000.0001) %MON pe_b_mean                    =   0.0000000000000E+00
(PID.TID 0000.0001) %MON ke_max                       =   0.0000000000000E+00
(PID.TID 0000.0001) %MON ke_mean                      =   0.0000000000000E+00
(PID.TID 0000.0001) %MON ke_vol                       =   2.5000000000000E+11
(PID.TID 0000.0001) %MON vort_r_min                   =   0.0000000000000E+00
(PID.TID 0000.0001) %MON vort_r_max                   =   0.0000000000000E+00
(PID.TID 0000.0001) %MON vort_a_mean                  =   7.2900000000000E-05
(PID.TID 0000.0001) %MON vort_a_sd                    =  -1.5269754107729E-21
(PID.TID 0000.0001) %MON vort_p_mean                  =   7.7363265306122E-05
(PID.TID 0000.0001) %MON vort_p_sd                    =   3.0922409111393E-05
(PID.TID 0000.0001) %MON surfExpan_theta_mean         =   0.0000000000000E+00
(PID.TID 0000.0001) %MON surfExpan_salt_mean          =   0.0000000000000E+00
(PID.TID 0000.0001) // =======================================================
(PID.TID 0000.0001) // End MONITOR dynamic field statistics
(PID.TID 0000.0001) // =======================================================
 cg2d: Sum(rhs),rhsMax =  -8.88109030761086E-14  6.56468600583942E-04
(PID.TID 0000.0001)                    cg2d_init_res =    1.48626964518938E+01
(PID.TID 0000.0001)                       cg2d_iters =    87
(PID.TID 0000.0001)                         cg2d_res =    7.06118405539009E-12
(PID.TID 0000.0001) // =======================================================
(PID.TID 0000.0001) // Begin MONITOR dynamic field statistics
(PID.TID 0000.0001) // =======================================================
(PID.TID 0000.0001) %MON time_tsnumber                =                     1
(PID.TID 0000.0001) %MON time_secondsf                =   1.2000000000000E+03
(PID.TID 0000.0001) %MON dynstat_eta_max              =   3.9842268071139E-04
(PID.TID 0000.0001) %MON dynstat_eta_min              =  -3.9842837043617E-04
(PID.TID 0000.0001) %MON dynstat_eta_mean             =   8.3269696915522E-19
(PID.TID 0000.0001) %MON dynstat_eta_sd               =   3.6612608254614E-04
(PID.TID 0000.0001) %MON dynstat_eta_del2             =   3.7667288738550E-06
(PID.TID 0000.0001) %MON dynstat_uvel_max             =   2.2544011490905E-06
(PID.TID 0000.0001) %MON dynstat_uvel_min             =  -2.2551996809585E-06
(PID.TID 0000.0001) %MON dynstat_uvel_mean            =  -1.2572165530855E-24
(PID.TID 0000.0001) %MON dynstat_uvel_sd              =   5.5824477054852E-07
(PID.TID 0000.0001) %MON dynstat_uvel_del2            =   5.0748750850850E-07
(PID.TID 0000.0001) %MON dynstat_vvel_max             =   2.1462006561600E-03
(PID.TID 0000.0001) %MON dynstat_vvel_min             =  -2.1830777145806E-03
(PID.TID 0000.0001) %MON dynstat_vvel_mean            =  -1.0578841014773E-05
(PID.TID 0000.0001) %MON dynstat_vvel_sd              =   4.5799186676801E-04
(PID.TID 0000.0001) %MON dynstat_vvel_del2            =   1.6416795924215E-05
(PID.TID 0000.0001) %MON dynstat_wvel_max             =   3.9378351299747E-05
(PID.TID 0000.0001) %MON dynstat_wvel_min             =  -3.9465541968650E-05
(PID.TID 0000.0001) %MON dynstat_wvel_mean            =  -4.1901194539379E-22
(PID.TID 0000.0001) %MON dynstat_wvel_sd              =   1.2228152067998E-05
(PID.TID 0000.0001) %MON dynstat_wvel_del2            =   1.0262471687256E-06
(PID.TID 0000.0001) %MON dynstat_theta_max            =   1.7020391872709E+01
(PID.TID 0000.0001) %MON dynstat_theta_min            =   1.6979608188987E+01
(PID.TID 0000.0001) %MON dynstat_theta_mean           =   1.6999999917591E+01
(PID.TID 0000.0001) %MON dynstat_theta_sd             =   1.8685309690077E-02
(PID.TID 0000.0001) %MON dynstat_theta_del2           =   1.8924939857200E-04
(PID.TID 0000.0001) %MON dynstat_salt_max             =   1.7020387109310E+01
(PID.TID 0000.0001) %MON dynstat_salt_min             =   1.6979612982854E+01
(PID.TID 0000.0001) %MON dynstat_salt_mean            =   1.7000000005831E+01
(PID.TID 0000.0001) %MON dynstat_salt_sd              =   1.8685329918559E-02
(PID.TID 0000.0001) %MON dynstat_salt_del2            =   1.8842707878318E-04
(PID.TID 0000.0001) %MON dynstat_sst_max              =   1.7020391872709E+01
(PID.TID 0000.0001) %MON dynstat_sst_min              =   1.6979608189006E+01
(PID.TID 0000.0001) %MON dynstat_sst_mean             =   1.7000002920721E+01
(PID.TID 0000.0001) %MON dynstat_sst_sd               =   1.8685297479187E-02
(PID.TID 0000.0001) %MON dynstat_sst_del2             =   1.8929176828324E-04
(PID.TID 0000.0001) %MON dynstat_sss_max              =   1.7020387109310E+01
(PID.TID 0000.0001) %MON dynstat_sss_min              =   1.6979612982854E+01
(PID.TID 0000.0001) %MON dynstat_sss_mean             =   1.7000000005850E+01
(PID.TID 0000.0001) %MON dynstat_sss_sd               =   1.8685329915446E-02
(PID.TID 0000.0001) %MON dynstat_sss_del2             =   1.8842716232294E-04
(PID.TID 0000.0001) %MON extforcing_qnet_max          =   0.0000000000000E+00
(PID.TID 0000.0001) %MON extforcing_qnet_min          =   0.0000000000000E+00
(PID.TID 0000.0001) %MON extforcing_qnet_mean         =   0.0000000000000E+00
(PID.TID 0000.0001) %MON extforcing_qnet_sd           =   0.0000000000000E+00
(PID.TID 0000.0001) %MON extforcing_qnet_del2         =   0.0000000000000E+00
(PID.TID 0000.0001) %MON extforcing_qsw_max           =   0.0000000000000E+00
(PID.TID 0000.0001) %MON extforcing_qsw_min           =   0.0000000000000E+00
(PID.TID 0000.0001) %MON extforcing_qsw_mean          =   0.0000000000000E+00
(PID.TID 0000.0001) %MON extforcing_qsw_sd            =   0.0000000000000E+00
(PID.TID 0000.0001) %MON extforcing_qsw_del2          =   0.0000000000000E+00
(PID.TID 0000.0001) %MON extforcing_empmr_max         =   0.0000000000000E+00
(PID.TID 0000.0001) %MON extforcing_empmr_min         =   0.0000000000000E+00
(PID.TID 0000.0001) %MON extforcing_empmr_mean        =   0.0000000000000E+00
(PID.TID 0000.0001) %MON extforcing_empmr_sd          =   0.0000000000000E+00
(PID.TID 0000.0001) %MON extforcing_empmr_del2        =   0.0000000000000E+00
(PID.TID 0000.0001) %MON extforcing_fu_max            =   0.0000000000000E+00
(PID.TID 0000.0001) %MON extforcing_fu_min            =   0.0000000000000E+00
(PID.TID 0000.0001) %MON extforcing_fu_mean           =   0.0000000000000E+00
(PID.TID 0000.0001) %MON extforcing_fu_sd             =   0.0000000000000E+00
(PID.TID 0000.0001) %MON extforcing_fu_del2           =   0.0000000000000E+00
(PID.TID 0000.0001) %MON extforcing_fv_max            =   0.0000000000000E+00
(PID.TID 0000.0001) %MON extforcing_fv_min            =   0.0000000000000E+00
(PID.TID 0000.0001) %MON extforcing_fv_mean           =   0.0000000000000E+00
(PID.TID 0000.0001) %MON extforcing_fv_sd             =   0.0000000000000E+00
(PID.TID 0000.0001) %MON extforcing_fv_del2           =   0.0000000000000E+00
(PID.TID 0000.0001) %MON advcfl_uvel_max              =   2.7062396171502E-06
(PID.TID 0000.0001) %MON advcfl_vvel_max              =   2.6196932574967E-03
(PID.TID 0000.0001) %MON advcfl_wvel_max              =   9.4717300724759E-03
(PID.TID 0000.0001) %MON advcfl_W_hf_max              =   9.4717300724759E-03
(PID.TID 0000.0001) %MON pe_b_mean                    =   3.2875347615623E-09
(PID.TID 0000.0001) %MON ke_max                       =   2.3803454176286E-06
(PID.TID 0000.0001) %MON ke_mean                      =   1.0073701753199E-07
(PID.TID 0000.0001) %MON ke_vol                       =   2.5000000000000E+11
(PID.TID 0000.0001) %MON vort_r_min                   =  -2.0745914737634E-09
(PID.TID 0000.0001) %MON vort_r_max                   =   2.0747317232224E-09
(PID.TID 0000.0001) %MON vort_a_mean                  =   7.2900000000000E-05
(PID.TID 0000.0001) %MON vort_a_sd                    =   1.4695306819499E-10
(PID.TID 0000.0001) %MON vort_p_mean                  =   7.7363265306122E-05
(PID.TID 0000.0001) %MON vort_p_sd                    =   3.0922409112961E-05
(PID.TID 0000.0001) %MON surfExpan_theta_mean         =   5.7008896850748E-09
(PID.TID 0000.0001) %MON surfExpan_salt_mean          =  -1.1711322136421E-14
(PID.TID 0000.0001) // =======================================================
(PID.TID 0000.0001) // End MONITOR dynamic field statistics
(PID.TID 0000.0001) // =======================================================
 cg2d: Sum(rhs),rhsMax =  -4.86824122680751E-14  6.57707690134254E-04
(PID.TID 0000.0001)                    cg2d_init_res =    1.36784067955559E-01
(PID.TID 0000.0001)                       cg2d_iters =    74
(PID.TID 0000.0001)                         cg2d_res =    8.30843495215561E-12
(PID.TID 0000.0001) // =======================================================
(PID.TID 0000.0001) // Begin MONITOR dynamic field statistics
(PID.TID 0000.0001) // =======================================================
(PID.TID 0000.0001) %MON time_tsnumber                =                     2
(PID.TID 0000.0001) %MON time_secondsf                =   2.4000000000000E+03
(PID.TID 0000.0001) %MON dynstat_eta_max              =   4.1814695105973E-04
(PID.TID 0000.0001) %MON dynstat_eta_min              =  -4.1812434806097E-04
(PID.TID 0000.0001) %MON dynstat_eta_mean             =   5.1479582907632E-18
(PID.TID 0000.0001) %MON dynstat_eta_sd               =   3.8096690886044E-04
(PID.TID 0000.0001) %MON dynstat_eta_del2             =   3.8064847215969E-06
(PID.TID 0000.0001) %MON dynstat_uvel_max             =   2.8737518295139E-04
(PID.TID 0000.0001) %MON dynstat_uvel_min             =  -2.9225171307377E-04
(PID.TID 0000.0001) %MON dynstat_uvel_mean            =  -1.3502527510245E-06
(PID.TID 0000.0001) %MON dynstat_uvel_sd              =   5.7926397864807E-05
(PID.TID 0000.0001) %MON dynstat_uvel_del2            =   2.5477742953730E-06
(PID.TID 0000.0001) %MON dynstat_vvel_max             =   4.3291027657777E-03
(PID.TID 0000.0001) %MON dynstat_vvel_min             =  -4.3300463029458E-03
(PID.TID 0000.0001) %MON dynstat_vvel_mean            =  -4.7572881159309E-07
(PID.TID 0000.0001) %MON dynstat_vvel_sd              =   9.1590604535368E-04
(PID.TID 0000.0001) %MON dynstat_vvel_del2            =   3.2799738874993E-05
(PID.TID 0000.0001) %MON dynstat_wvel_max             =   7.8592771254919E-05
(PID.TID 0000.0001) %MON dynstat_wvel_min             =  -7.8769078550478E-05
(PID.TID 0000.0001) %MON dynstat_wvel_mean            =  -3.4863706858166E-22
(PID.TID 0000.0001) %MON dynstat_wvel_sd              =   2.4337143371180E-05
(PID.TID 0000.0001) %MON dynstat_wvel_del2            =   2.0510098462862E-06
(PID.TID 0000.0001) %MON dynstat_theta_max            =   1.7020391872709E+01
(PID.TID 0000.0001) %MON dynstat_theta_min            =   1.6979608188987E+01
(PID.TID 0000.0001) %MON dynstat_theta_mean           =   1.6999999916205E+01
(PID.TID 0000.0001) %MON dynstat_theta_sd             =   1.8685281796081E-02
(PID.TID 0000.0001) %MON dynstat_theta_del2           =   1.8936922569498E-04
(PID.TID 0000.0001) %MON dynstat_salt_max             =   1.7020387109310E+01
(PID.TID 0000.0001) %MON dynstat_salt_min             =   1.6979612982854E+01
(PID.TID 0000.0001) %MON dynstat_salt_mean            =   1.7000000005831E+01
(PID.TID 0000.0001) %MON dynstat_salt_sd              =   1.8685329644947E-02
(PID.TID 0000.0001) %MON dynstat_salt_del2            =   1.8842852360757E-04
(PID.TID 0000.0001) %MON dynstat_sst_max              =   1.7020391872709E+01
(PID.TID 0000.0001) %MON dynstat_sst_min              =   1.6979608189060E+01
(PID.TID 0000.0001) %MON dynstat_sst_mean             =   1.7000008924863E+01
(PID.TID 0000.0001) %MON dynstat_sst_sd               =   1.8685246173985E-02
(PID.TID 0000.0001) %MON dynstat_sst_del2             =   1.8958073546835E-04
(PID.TID 0000.0001) %MON dynstat_sss_max              =   1.7020387109310E+01
(PID.TID 0000.0001) %MON dynstat_sss_min              =   1.6979612982854E+01
(PID.TID 0000.0001) %MON dynstat_sss_mean             =   1.7000000005883E+01
(PID.TID 0000.0001) %MON dynstat_sss_sd               =   1.8685329396586E-02
(PID.TID 0000.0001) %MON dynstat_sss_del2             =   1.8842996240373E-04
(PID.TID 0000.0001) %MON extforcing_qnet_max          =   0.0000000000000E+00
(PID.TID 0000.0001) %MON extforcing_qnet_min          =   0.0000000000000E+00
(PID.TID 0000.0001) %MON extforcing_qnet_mean         =   0.0000000000000E+00
(PID.TID 0000.0001) %MON extforcing_qnet_sd           =   0.0000000000000E+00
(PID.TID 0000.0001) %MON extforcing_qnet_del2         =   0.0000000000000E+00
(PID.TID 0000.0001) %MON extforcing_qsw_max           =   0.0000000000000E+00
(PID.TID 0000.0001) %MON extforcing_qsw_min           =   0.0000000000000E+00
(PID.TID 0000.0001) %MON extforcing_qsw_mean          =   0.0000000000000E+00
(PID.TID 0000.0001) %MON extforcing_qsw_sd            =   0.0000000000000E+00
(PID.TID 0000.0001) %MON extforcing_qsw_del2          =   0.0000000000000E+00
(PID.TID 0000.0001) %MON extforcing_empmr_max         =   0.0000000000000E+00
(PID.TID 0000.0001) %MON extforcing_empmr_min         =   0.0000000000000E+00
(PID.TID 0000.0001) %MON extforcing_empmr_mean        =   0.0000000000000E+00
(PID.TID 0000.0001) %MON extforcing_empmr_sd          =   0.0000000000000E+00
(PID.TID 0000.0001) %MON extforcing_empmr_del2        =   0.0000000000000E+00
(PID.TID 0000.0001) %MON extforcing_fu_max            =   0.0000000000000E+00
(PID.TID 0000.0001) %MON extforcing_fu_min            =   0.0000000000000E+00
(PID.TID 0000.0001) %MON extforcing_fu_mean           =   0.0000000000000E+00
(PID.TID 0000.0001) %MON extforcing_fu_sd             =   0.0000000000000E+00
(PID.TID 0000.0001) %MON extforcing_fu_del2           =   0.0000000000000E+00
(PID.TID 0000.0001) %MON extforcing_fv_max            =   0.0000000000000E+00
(PID.TID 0000.0001) %MON extforcing_fv_min            =   0.0000000000000E+00
(PID.TID 0000.0001) %MON extforcing_fv_mean           =   0.0000000000000E+00
(PID.TID 0000.0001) %MON extforcing_fv_sd             =   0.0000000000000E+00
(PID.TID 0000.0001) %MON extforcing_fv_del2           =   0.0000000000000E+00
(PID.TID 0000.0001) %MON advcfl_uvel_max              =   3.5070205568852E-04
(PID.TID 0000.0001) %MON advcfl_vvel_max              =   5.1960555635350E-03
(PID.TID 0000.0001) %MON advcfl_wvel_max              =   1.8904578852115E-02
(PID.TID 0000.0001) %MON advcfl_W_hf_max              =   1.8904578852115E-02
(PID.TID 0000.0001) %MON pe_b_mean                    =   3.5594551429847E-09
(PID.TID 0000.0001) %MON ke_max                       =   9.4040401118116E-06
(PID.TID 0000.0001) %MON ke_mean                      =   4.0434301828802E-07
(PID.TID 0000.0001) %MON ke_vol                       =   2.5000000000000E+11
(PID.TID 0000.0001) %MON vort_r_min                   =  -9.8839282787735E-08
(PID.TID 0000.0001) %MON vort_r_max                   =   9.8800813243932E-08
(PID.TID 0000.0001) %MON vort_a_mean                  =   7.2900000000000E-05
(PID.TID 0000.0001) %MON vort_a_sd                    =   2.2893217287285E-08
(PID.TID 0000.0001) %MON vort_p_mean                  =   7.7363265306123E-05
(PID.TID 0000.0001) %MON vort_p_sd                    =   3.0922418108564E-05
(PID.TID 0000.0001) %MON surfExpan_theta_mean         =   2.3109871503909E-10
(PID.TID 0000.0001) %MON surfExpan_salt_mean          =  -6.7252750635127E-16
(PID.TID 0000.0001) // =======================================================
(PID.TID 0000.0001) // End MONITOR dynamic field statistics
(PID.TID 0000.0001) // =======================================================
 cg2d: Sum(rhs),rhsMax =   1.20156922606141E-13  6.57125312286458E-04
(PID.TID 0000.0001)                    cg2d_init_res =    6.95345486920641E-02
(PID.TID 0000.0001)                       cg2d_iters =    72
(PID.TID 0000.0001)                         cg2d_res =    8.63129199955267E-12
(PID.TID 0000.0001) // =======================================================
(PID.TID 0000.0001) // Begin MONITOR dynamic field statistics
(PID.TID 0000.0001) // =======================================================
(PID.TID 0000.0001) %MON time_tsnumber                =                     3
(PID.TID 0000.0001) %MON time_secondsf                =   3.6000000000000E+03
(PID.TID 0000.0001) %MON dynstat_eta_max              =   4.0840773774366E-04
(PID.TID 0000.0001) %MON dynstat_eta_min              =  -4.0831016527040E-04
(PID.TID 0000.0001) %MON dynstat_eta_mean             =   6.1689206631854E-18
(PID.TID 0000.0001) %MON dynstat_eta_sd               =   3.7405761618198E-04
(PID.TID 0000.0001) %MON dynstat_eta_del2             =   3.7853991413983E-06
(PID.TID 0000.0001) %MON dynstat_uvel_max             =   7.6480091191314E-04
(PID.TID 0000.0001) %MON dynstat_uvel_min             =  -7.6824192905194E-04
(PID.TID 0000.0001) %MON dynstat_uvel_mean            =  -9.5499884920287E-07
(PID.TID 0000.0001) %MON dynstat_uvel_sd              =   1.5418086998570E-04
(PID.TID 0000.0001) %MON dynstat_uvel_del2            =   6.0833070216985E-06
(PID.TID 0000.0001) %MON dynstat_vvel_max             =   6.4625176955635E-03
(PID.TID 0000.0001) %MON dynstat_vvel_min             =  -6.4610680667461E-03
(PID.TID 0000.0001) %MON dynstat_vvel_mean            =   2.2105994510402E-07
(PID.TID 0000.0001) %MON dynstat_vvel_sd              =   1.3662060170340E-03
(PID.TID 0000.0001) %MON dynstat_vvel_del2            =   4.8981711589553E-05
(PID.TID 0000.0001) %MON dynstat_wvel_max             =   1.1735999922033E-04
(PID.TID 0000.0001) %MON dynstat_wvel_min             =  -1.1762359778119E-04
(PID.TID 0000.0001) %MON dynstat_wvel_mean            =  -5.0987399956135E-23
(PID.TID 0000.0001) %MON dynstat_wvel_sd              =   3.6319465546333E-05
(PID.TID 0000.0001) %MON dynstat_wvel_del2            =   3.0642784341806E-06
(PID.TID 0000.0001) %MON dynstat_theta_max            =   1.7020391872709E+01
(PID.TID 0000.0001) %MON dynstat_theta_min            =   1.6979608188987E+01
(PID.TID 0000.0001) %MON dynstat_theta_mean           =   1.6999999916850E+01
(PID.TID 0000.0001) %MON dynstat_theta_sd             =   1.8685239967967E-02
(PID.TID 0000.0001) %MON dynstat_theta_del2           =   1.8958809630806E-04
(PID.TID 0000.0001) %MON dynstat_salt_max             =   1.7020387109310E+01
(PID.TID 0000.0001) %MON dynstat_salt_min             =   1.6979612982854E+01
(PID.TID 0000.0001) %MON dynstat_salt_mean            =   1.7000000005831E+01
(PID.TID 0000.0001) %MON dynstat_salt_sd              =   1.8685328925703E-02
(PID.TID 0000.0001) %MON dynstat_salt_del2            =   1.8843226708824E-04
(PID.TID 0000.0001) %MON dynstat_sst_max              =   1.7020391872709E+01
(PID.TID 0000.0001) %MON dynstat_sst_min              =   1.6979608189140E+01
(PID.TID 0000.0001) %MON dynstat_sst_mean             =   1.7000017882362E+01
(PID.TID 0000.0001) %MON dynstat_sst_sd               =   1.8685171791704E-02
(PID.TID 0000.0001) %MON dynstat_sst_del2             =   1.9002581685648E-04
(PID.TID 0000.0001) %MON dynstat_sss_max              =   1.7020387109310E+01
(PID.TID 0000.0001) %MON dynstat_sss_min              =   1.6979612982854E+01
(PID.TID 0000.0001) %MON dynstat_sss_mean             =   1.7000000005926E+01
(PID.TID 0000.0001) %MON dynstat_sss_sd               =   1.8685328004354E-02
(PID.TID 0000.0001) %MON dynstat_sss_del2             =   1.8843723565729E-04
(PID.TID 0000.0001) %MON extforcing_qnet_max          =   0.0000000000000E+00
(PID.TID 0000.0001) %MON extforcing_qnet_min          =   0.0000000000000E+00
(PID.TID 0000.0001) %MON extforcing_qnet_mean         =   0.0000000000000E+00
(PID.TID 0000.0001) %MON extforcing_qnet_sd           =   0.0000000000000E+00
(PID.TID 0000.0001) %MON extforcing_qnet_del2         =   0.0000000000000E+00
(PID.TID 0000.0001) %MON extforcing_qsw_max           =   0.0000000000000E+00
(PID.TID 0000.0001) %MON extforcing_qsw_min           =   0.0000000000000E+00
(PID.TID 0000.0001) %MON extforcing_qsw_mean          =   0.0000000000000E+00
(PID.TID 0000.0001) %MON extforcing_qsw_sd            =   0.0000000000000E+00
(PID.TID 0000.0001) %MON extforcing_qsw_del2          =   0.0000000000000E+00
(PID.TID 0000.0001) %MON extforcing_empmr_max         =   0.0000000000000E+00
(PID.TID 0000.0001) %MON extforcing_empmr_min         =   0.0000000000000E+00
(PID.TID 0000.0001) %MON extforcing_empmr_mean        =   0.0000000000000E+00
(PID.TID 0000.0001) %MON extforcing_empmr_sd          =   0.0000000000000E+00
(PID.TID 0000.0001) %MON extforcing_empmr_del2        =   0.0000000000000E+00
(PID.TID 0000.0001) %MON extforcing_fu_max            =   0.0000000000000E+00
(PID.TID 0000.0001) %MON extforcing_fu_min            =   0.0000000000000E+00
(PID.TID 0000.0001) %MON extforcing_fu_mean           =   0.0000000000000E+00
(PID.TID 0000.0001) %MON extforcing_fu_sd             =   0.0000000000000E+00
(PID.TID 0000.0001) %MON extforcing_fu_del2           =   0.0000000000000E+00
(PID.TID 0000.0001) %MON extforcing_fv_max            =   0.0000000000000E+00
(PID.TID 0000.0001) %MON extforcing_fv_min            =   0.0000000000000E+00
(PID.TID 0000.0001) %MON extforcing_fv_mean           =   0.0000000000000E+00
(PID.TID 0000.0001) %MON extforcing_fv_sd             =   0.0000000000000E+00
(PID.TID 0000.0001) %MON extforcing_fv_del2           =   0.0000000000000E+00
(PID.TID 0000.0001) %MON advcfl_uvel_max              =   9.2189031486233E-04
(PID.TID 0000.0001) %MON advcfl_vvel_max              =   7.7550212346762E-03
(PID.TID 0000.0001) %MON advcfl_wvel_max              =   2.8229663467486E-02
(PID.TID 0000.0001) %MON advcfl_W_hf_max              =   2.8229663467486E-02
(PID.TID 0000.0001) %MON pe_b_mean                    =   3.4315159329874E-09
(PID.TID 0000.0001) %MON ke_max                       =   2.1121191671567E-05
(PID.TID 0000.0001) %MON ke_mean                      =   9.0781541267295E-07
(PID.TID 0000.0001) %MON ke_vol                       =   2.5000000000000E+11
(PID.TID 0000.0001) %MON vort_r_min                   =  -2.6265001964714E-07
(PID.TID 0000.0001) %MON vort_r_max                   =   2.6290846420228E-07
(PID.TID 0000.0001) %MON vort_a_mean                  =   7.2900000000001E-05
(PID.TID 0000.0001) %MON vort_a_sd                    =   6.0939805862550E-08
(PID.TID 0000.0001) %MON vort_p_mean                  =   7.7363265306123E-05
(PID.TID 0000.0001) %MON vort_p_sd                    =   3.0922472849052E-05
(PID.TID 0000.0001) %MON surfExpan_theta_mean         =  -1.0751072871179E-10
(PID.TID 0000.0001) %MON surfExpan_salt_mean          =   2.8132650671253E-16
(PID.TID 0000.0001) // =======================================================
(PID.TID 0000.0001) // End MONITOR dynamic field statistics
(PID.TID 0000.0001) // =======================================================
 cg2d: Sum(rhs),rhsMax =   1.15040897814833E-14  6.57115093993234E-04
(PID.TID 0000.0001)                    cg2d_init_res =    3.81701761484166E-02
(PID.TID 0000.0001)                       cg2d_iters =    73
(PID.TID 0000.0001)                         cg2d_res =    5.67625873151953E-12
(PID.TID 0000.0001) // =======================================================
(PID.TID 0000.0001) // Begin MONITOR dynamic field statistics
(PID.TID 0000.0001) // =======================================================
(PID.TID 0000.0001) %MON time_tsnumber                =                     4
(PID.TID 0000.0001) %MON time_secondsf                =   4.8000000000000E+03
(PID.TID 0000.0001) %MON dynstat_eta_max              =   4.0766155771070E-04
(PID.TID 0000.0001) %MON dynstat_eta_min              =  -4.0745826288182E-04
(PID.TID 0000.0001) %MON dynstat_eta_mean             =   1.8093487597071E-18
(PID.TID 0000.0001) %MON dynstat_eta_sd               =   3.7351458745633E-04
(PID.TID 0000.0001) %MON dynstat_eta_del2             =   3.7861817184922E-06
(PID.TID 0000.0001) %MON dynstat_uvel_max             =   1.4259374060982E-03
(PID.TID 0000.0001) %MON dynstat_uvel_min             =  -1.4292593308688E-03
(PID.TID 0000.0001) %MON dynstat_uvel_mean            =  -9.0621832910986E-07
(PID.TID 0000.0001) %MON dynstat_uvel_sd              =   2.8781713630765E-04
(PID.TID 0000.0001) %MON dynstat_uvel_del2            =   1.0916190910577E-05
(PID.TID 0000.0001) %MON dynstat_vvel_max             =   8.5513264623706E-03
(PID.TID 0000.0001) %MON dynstat_vvel_min             =  -8.5502486949877E-03
(PID.TID 0000.0001) %MON dynstat_vvel_mean            =   1.7605867693599E-08
(PID.TID 0000.0001) %MON dynstat_vvel_sd              =   1.8063788178225E-03
(PID.TID 0000.0001) %MON dynstat_vvel_del2            =   6.4877916189107E-05
(PID.TID 0000.0001) %MON dynstat_wvel_max             =   1.5543154266231E-04
(PID.TID 0000.0001) %MON dynstat_wvel_min             =  -1.5578186131219E-04
(PID.TID 0000.0001) %MON dynstat_wvel_mean            =   1.7837498566816E-21
(PID.TID 0000.0001) %MON dynstat_wvel_sd              =   4.8061058756137E-05
(PID.TID 0000.0001) %MON dynstat_wvel_del2            =   4.0613826669775E-06
(PID.TID 0000.0001) %MON dynstat_theta_max            =   1.7020391872709E+01
(PID.TID 0000.0001) %MON dynstat_theta_min            =   1.6979608188987E+01
(PID.TID 0000.0001) %MON dynstat_theta_mean           =   1.6999999916901E+01
(PID.TID 0000.0001) %MON dynstat_theta_sd             =   1.8685184275198E-02
(PID.TID 0000.0001) %MON dynstat_theta_del2           =   1.8988120099169E-04
(PID.TID 0000.0001) %MON dynstat_salt_max             =   1.7020387109310E+01
(PID.TID 0000.0001) %MON dynstat_salt_min             =   1.6979612982854E+01
(PID.TID 0000.0001) %MON dynstat_salt_mean            =   1.7000000005831E+01
(PID.TID 0000.0001) %MON dynstat_salt_sd              =   1.8685327586874E-02
(PID.TID 0000.0001) %MON dynstat_salt_del2            =   1.8843915720093E-04
(PID.TID 0000.0001) %MON dynstat_sst_max              =   1.7020391872709E+01
(PID.TID 0000.0001) %MON dynstat_sst_min              =   1.6979608189246E+01
(PID.TID 0000.0001) %MON dynstat_sst_mean             =   1.7000029722956E+01
(PID.TID 0000.0001) %MON dynstat_sst_sd               =   1.8685076595637E-02
(PID.TID 0000.0001) %MON dynstat_sst_del2             =   1.9060479389546E-04
(PID.TID 0000.0001) %MON dynstat_sss_max              =   1.7020387109310E+01
(PID.TID 0000.0001) %MON dynstat_sss_min              =   1.6979612982854E+01
(PID.TID 0000.0001) %MON dynstat_sss_mean             =   1.7000000005978E+01
(PID.TID 0000.0001) %MON dynstat_sss_sd               =   1.8685325403565E-02
(PID.TID 0000.0001) %MON dynstat_sss_del2             =   1.8845064534985E-04
(PID.TID 0000.0001) %MON extforcing_qnet_max          =   0.0000000000000E+00
(PID.TID 0000.0001) %MON extforcing_qnet_min          =   0.0000000000000E+00
(PID.TID 0000.0001) %MON extforcing_qnet_mean         =   0.0000000000000E+00
(PID.TID 0000.0001) %MON extforcing_qnet_sd           =   0.0000000000000E+00
(PID.TID 0000.0001) %MON extforcing_qnet_del2         =   0.0000000000000E+00
(PID.TID 0000.0001) %MON extforcing_qsw_max           =   0.0000000000000E+00
(PID.TID 0000.0001) %MON extforcing_qsw_min           =   0.0000000000000E+00
(PID.TID 0000.0001) %MON extforcing_qsw_mean          =   0.0000000000000E+00
(PID.TID 0000.0001) %MON extforcing_qsw_sd            =   0.0000000000000E+00
(PID.TID 0000.0001) %MON extforcing_qsw_del2          =   0.0000000000000E+00
(PID.TID 0000.0001) %MON extforcing_empmr_max         =   0.0000000000000E+00
(PID.TID 0000.0001) %MON extforcing_empmr_min         =   0.0000000000000E+00
(PID.TID 0000.0001) %MON extforcing_empmr_mean        =   0.0000000000000E+00
(PID.TID 0000.0001) %MON extforcing_empmr_sd          =   0.0000000000000E+00
(PID.TID 0000.0001) %MON extforcing_empmr_del2        =   0.0000000000000E+00
(PID.TID 0000.0001) %MON extforcing_fu_max            =   0.0000000000000E+00
(PID.TID 0000.0001) %MON extforcing_fu_min            =   0.0000000000000E+00
(PID.TID 0000.0001) %MON extforcing_fu_mean           =   0.0000000000000E+00
(PID.TID 0000.0001) %MON extforcing_fu_sd             =   0.0000000000000E+00
(PID.TID 0000.0001) %MON extforcing_fu_del2           =   0.0000000000000E+00
(PID.TID 0000.0001) %MON extforcing_fv_max            =   0.0000000000000E+00
(PID.TID 0000.0001) %MON extforcing_fv_min            =   0.0000000000000E+00
(PID.TID 0000.0001) %MON extforcing_fv_mean           =   0.0000000000000E+00
(PID.TID 0000.0001) %MON extforcing_fv_sd             =   0.0000000000000E+00
(PID.TID 0000.0001) %MON extforcing_fv_del2           =   0.0000000000000E+00
(PID.TID 0000.0001) %MON advcfl_uvel_max              =   1.7151111970426E-03
(PID.TID 0000.0001) %MON advcfl_vvel_max              =   1.0261591754845E-02
(PID.TID 0000.0001) %MON advcfl_wvel_max              =   3.7387646714926E-02
(PID.TID 0000.0001) %MON advcfl_W_hf_max              =   3.7387646714926E-02
(PID.TID 0000.0001) %MON pe_b_mean                    =   3.4215599312215E-09
(PID.TID 0000.0001) %MON ke_max                       =   3.7446656879353E-05
(PID.TID 0000.0001) %MON ke_mean                      =   1.6076618908102E-06
(PID.TID 0000.0001) %MON ke_vol                       =   2.5000000000000E+11
(PID.TID 0000.0001) %MON vort_r_min                   =  -4.8991265138226E-07
(PID.TID 0000.0001) %MON vort_r_max                   =   4.9141037382963E-07
(PID.TID 0000.0001) %MON vort_a_mean                  =   7.2900000000000E-05
(PID.TID 0000.0001) %MON vort_a_sd                    =   1.1379351791991E-07
(PID.TID 0000.0001) %MON vort_p_mean                  =   7.7363265306123E-05
(PID.TID 0000.0001) %MON vort_p_sd                    =   3.0922631340642E-05
(PID.TID 0000.0001) %MON surfExpan_theta_mean         =  -8.4625033054819E-12
(PID.TID 0000.0001) %MON surfExpan_salt_mean          =  -6.5685644409785E-18
(PID.TID 0000.0001) // =======================================================
(PID.TID 0000.0001) // End MONITOR dynamic field statistics
(PID.TID 0000.0001) // =======================================================
 cg2d: Sum(rhs),rhsMax =   1.66701776081052E-13  6.56979090544107E-04
(PID.TID 0000.0001)                    cg2d_init_res =    4.67304098206085E-02
(PID.TID 0000.0001)                       cg2d_iters =    73
(PID.TID 0000.0001)                         cg2d_res =    7.98434541268487E-12
(PID.TID 0000.0001) // =======================================================
(PID.TID 0000.0001) // Begin MONITOR dynamic field statistics
(PID.TID 0000.0001) // =======================================================
(PID.TID 0000.0001) %MON time_tsnumber                =                     5
(PID.TID 0000.0001) %MON time_secondsf                =   6.0000000000000E+03
(PID.TID 0000.0001) %MON dynstat_eta_max              =   4.0789903191622E-04
(PID.TID 0000.0001) %MON dynstat_eta_min              =  -4.0756825440187E-04
(PID.TID 0000.0001) %MON dynstat_eta_mean             =   1.1051524779759E-17
(PID.TID 0000.0001) %MON dynstat_eta_sd               =   3.7363102350221E-04
(PID.TID 0000.0001) %MON dynstat_eta_del2             =   3.7891723111176E-06
(PID.TID 0000.0001) %MON dynstat_uvel_max             =   2.2667125190754E-03
(PID.TID 0000.0001) %MON dynstat_uvel_min             =  -2.2701164065837E-03
(PID.TID 0000.0001) %MON dynstat_uvel_mean            =  -9.1350855796364E-07
(PID.TID 0000.0001) %MON dynstat_uvel_sd              =   4.5787168843564E-04
(PID.TID 0000.0001) %MON dynstat_uvel_del2            =   1.7022989731731E-05
(PID.TID 0000.0001) %MON dynstat_vvel_max             =   1.0583330131336E-02
(PID.TID 0000.0001) %MON dynstat_vvel_min             =  -1.0582072320853E-02
(PID.TID 0000.0001) %MON dynstat_vvel_mean            =  -3.8169819598640E-09
(PID.TID 0000.0001) %MON dynstat_vvel_sd              =   2.2332013044460E-03
(PID.TID 0000.0001) %MON dynstat_vvel_del2            =   8.0396630603308E-05
(PID.TID 0000.0001) %MON dynstat_wvel_max             =   1.9257531425844E-04
(PID.TID 0000.0001) %MON dynstat_wvel_min             =  -1.9301155456198E-04
(PID.TID 0000.0001) %MON dynstat_wvel_mean            =  -9.7440682807994E-22
(PID.TID 0000.0001) %MON dynstat_wvel_sd              =   5.9480859933278E-05
(PID.TID 0000.0001) %MON dynstat_wvel_del2            =   5.0372356964645E-06
(PID.TID 0000.0001) %MON dynstat_theta_max            =   1.7020391872709E+01
(PID.TID 0000.0001) %MON dynstat_theta_min            =   1.6979608188987E+01
(PID.TID 0000.0001) %MON dynstat_theta_mean           =   1.6999999916890E+01
(PID.TID 0000.0001) %MON dynstat_theta_sd             =   1.8685114824946E-02
(PID.TID 0000.0001) %MON dynstat_theta_del2           =   1.9023897421896E-04
(PID.TID 0000.0001) %MON dynstat_salt_max             =   1.7020387109310E+01
(PID.TID 0000.0001) %MON dynstat_salt_min             =   1.6979612982854E+01
(PID.TID 0000.0001) %MON dynstat_salt_mean            =   1.7000000005831E+01
(PID.TID 0000.0001) %MON dynstat_salt_sd              =   1.8685325460373E-02
(PID.TID 0000.0001) %MON dynstat_salt_del2            =   1.8845002906829E-04
(PID.TID 0000.0001) %MON dynstat_sst_max              =   1.7020391872709E+01
(PID.TID 0000.0001) %MON dynstat_sst_min              =   1.6979608189379E+01
(PID.TID 0000.0001) %MON dynstat_sst_mean             =   1.7000044358070E+01
(PID.TID 0000.0001) %MON dynstat_sst_sd               =   1.8684963131294E-02
(PID.TID 0000.0001) %MON dynstat_sst_del2             =   1.9130524543449E-04
(PID.TID 0000.0001) %MON dynstat_sss_max              =   1.7020387109310E+01
(PID.TID 0000.0001) %MON dynstat_sss_min              =   1.6979612982854E+01
(PID.TID 0000.0001) %MON dynstat_sss_mean             =   1.7000000006035E+01
(PID.TID 0000.0001) %MON dynstat_sss_sd               =   1.8685321267678E-02
(PID.TID 0000.0001) %MON dynstat_sss_del2             =   1.8847176801953E-04
(PID.TID 0000.0001) %MON extforcing_qnet_max          =   0.0000000000000E+00
(PID.TID 0000.0001) %MON extforcing_qnet_min          =   0.0000000000000E+00
(PID.TID 0000.0001) %MON extforcing_qnet_mean         =   0.0000000000000E+00
(PID.TID 0000.0001) %MON extforcing_qnet_sd           =   0.0000000000000E+00
(PID.TID 0000.0001) %MON extforcing_qnet_del2         =   0.0000000000000E+00
(PID.TID 0000.0001) %MON extforcing_qsw_max           =   0.0000000000000E+00
(PID.TID 0000.0001) %MON extforcing_qsw_min           =   0.0000000000000E+00
(PID.TID 0000.0001) %MON extforcing_qsw_mean          =   0.0000000000000E+00
(PID.TID 0000.0001) %MON extforcing_qsw_sd            =   0.0000000000000E+00
(PID.TID 0000.0001) %MON extforcing_qsw_del2          =   0.0000000000000E+00
(PID.TID 0000.0001) %MON extforcing_empmr_max         =   0.0000000000000E+00
(PID.TID 0000.0001) %MON extforcing_empmr_min         =   0.0000000000000E+00
(PID.TID 0000.0001) %MON extforcing_empmr_mean        =   0.0000000000000E+00
(PID.TID 0000.0001) %MON extforcing_empmr_sd          =   0.0000000000000E+00
(PID.TID 0000.0001) %MON extforcing_empmr_del2        =   0.0000000000000E+00
(PID.TID 0000.0001) %MON extforcing_fu_max            =   0.0000000000000E+00
(PID.TID 0000.0001) %MON extforcing_fu_min            =   0.0000000000000E+00
(PID.TID 0000.0001) %MON extforcing_fu_mean           =   0.0000000000000E+00
(PID.TID 0000.0001) %MON extforcing_fu_sd             =   0.0000000000000E+00
(PID.TID 0000.0001) %MON extforcing_fu_del2           =   0.0000000000000E+00
(PID.TID 0000.0001) %MON extforcing_fv_max            =   0.0000000000000E+00
(PID.TID 0000.0001) %MON extforcing_fv_min            =   0.0000000000000E+00
(PID.TID 0000.0001) %MON extforcing_fv_mean           =   0.0000000000000E+00
(PID.TID 0000.0001) %MON extforcing_fv_sd             =   0.0000000000000E+00
(PID.TID 0000.0001) %MON extforcing_fv_del2           =   0.0000000000000E+00
(PID.TID 0000.0001) %MON advcfl_uvel_max              =   2.7241396879004E-03
(PID.TID 0000.0001) %MON advcfl_vvel_max              =   1.2699996157603E-02
(PID.TID 0000.0001) %MON advcfl_wvel_max              =   4.6322773094875E-02
(PID.TID 0000.0001) %MON advcfl_W_hf_max              =   4.6322773094875E-02
(PID.TID 0000.0001) %MON pe_b_mean                    =   3.4236934757642E-09
(PID.TID 0000.0001) %MON ke_max                       =   5.8286151673359E-05
(PID.TID 0000.0001) %MON ke_mean                      =   2.4986739305575E-06
(PID.TID 0000.0001) %MON ke_vol                       =   2.5000000000000E+11
(PID.TID 0000.0001) %MON vort_r_min                   =  -7.7873801623140E-07
(PID.TID 0000.0001) %MON vort_r_max                   =   7.8330748732923E-07
(PID.TID 0000.0001) %MON vort_a_mean                  =   7.2900000000000E-05
(PID.TID 0000.0001) %MON vort_a_sd                    =   1.8110706769947E-07
(PID.TID 0000.0001) %MON vort_p_mean                  =   7.7363265306123E-05
(PID.TID 0000.0001) %MON vort_p_sd                    =   3.0922971989632E-05
(PID.TID 0000.0001) %MON surfExpan_theta_mean         =   1.7997833758588E-12
(PID.TID 0000.0001) %MON surfExpan_salt_mean          =  -4.2602170057318E-17
(PID.TID 0000.0001) // =======================================================
(PID.TID 0000.0001) // End MONITOR dynamic field statistics
(PID.TID 0000.0001) // =======================================================
 cg2d: Sum(rhs),rhsMax =   4.87806409849023E-14  6.56580708720310E-04
(PID.TID 0000.0001)                    cg2d_init_res =    5.26044433784456E-02
(PID.TID 0000.0001)                       cg2d_iters =    74
(PID.TID 0000.0001)                         cg2d_res =    5.46985947239562E-12
(PID.TID 0000.0001) // =======================================================
(PID.TID 0000.0001) // Begin MONITOR dynamic field statistics
(PID.TID 0000.0001) // =======================================================
(PID.TID 0000.0001) %MON time_tsnumber                =                     6
(PID.TID 0000.0001) %MON time_secondsf                =   7.2000000000000E+03
(PID.TID 0000.0001) %MON dynstat_eta_max              =   4.0799020851232E-04
(PID.TID 0000.0001) %MON dynstat_eta_min              =  -4.0752096099776E-04
(PID.TID 0000.0001) %MON dynstat_eta_mean             =   4.3180989450775E-18
(PID.TID 0000.0001) %MON dynstat_eta_sd               =   3.7364347144653E-04
(PID.TID 0000.0001) %MON dynstat_eta_del2             =   3.7920570406326E-06
(PID.TID 0000.0001) %MON dynstat_uvel_max             =   3.2811051856434E-03
(PID.TID 0000.0001) %MON dynstat_uvel_min             =  -3.2846003694744E-03
(PID.TID 0000.0001) %MON dynstat_uvel_mean            =  -9.1475588197728E-07
(PID.TID 0000.0001) %MON dynstat_uvel_sd              =   6.6308142738162E-04
(PID.TID 0000.0001) %MON dynstat_uvel_del2            =   2.4358266733846E-05
(PID.TID 0000.0001) %MON dynstat_vvel_max             =   1.2544632890610E-02
(PID.TID 0000.0001) %MON dynstat_vvel_min             =  -1.2543126154005E-02
(PID.TID 0000.0001) %MON dynstat_vvel_mean            =  -4.6135235727356E-10
(PID.TID 0000.0001) %MON dynstat_vvel_sd              =   2.6435332174838E-03
(PID.TID 0000.0001) %MON dynstat_vvel_del2            =   9.5449038361797E-05
(PID.TID 0000.0001) %MON dynstat_wvel_max             =   2.2856341819398E-04
(PID.TID 0000.0001) %MON dynstat_wvel_min             =  -2.2908445582672E-04
(PID.TID 0000.0001) %MON dynstat_wvel_mean            =  -2.3022106302914E-21
(PID.TID 0000.0001) %MON dynstat_wvel_sd              =   7.0502717014420E-05
(PID.TID 0000.0001) %MON dynstat_wvel_del2            =   5.9868718155133E-06
(PID.TID 0000.0001) %MON dynstat_theta_max            =   1.7020391872709E+01
(PID.TID 0000.0001) %MON dynstat_theta_min            =   1.6979608188987E+01
(PID.TID 0000.0001) %MON dynstat_theta_mean           =   1.6999999916889E+01
(PID.TID 0000.0001) %MON dynstat_theta_sd             =   1.8685031769069E-02
(PID.TID 0000.0001) %MON dynstat_theta_del2           =   1.9065304577257E-04
(PID.TID 0000.0001) %MON dynstat_salt_max             =   1.7020387109310E+01
(PID.TID 0000.0001) %MON dynstat_salt_min             =   1.6979612982854E+01
(PID.TID 0000.0001) %MON dynstat_salt_mean            =   1.7000000005831E+01
(PID.TID 0000.0001) %MON dynstat_salt_sd              =   1.8685322384560E-02
(PID.TID 0000.0001) %MON dynstat_salt_del2            =   1.8846566204815E-04
(PID.TID 0000.0001) %MON dynstat_sst_max              =   1.7020391872709E+01
(PID.TID 0000.0001) %MON dynstat_sst_min              =   1.6979608189540E+01
(PID.TID 0000.0001) %MON dynstat_sst_mean             =   1.7000061677698E+01
(PID.TID 0000.0001) %MON dynstat_sst_sd               =   1.8684834177514E-02
(PID.TID 0000.0001) %MON dynstat_sst_del2             =   1.9211204334223E-04
(PID.TID 0000.0001) %MON dynstat_sss_max              =   1.7020387109310E+01
(PID.TID 0000.0001) %MON dynstat_sss_min              =   1.6979612982854E+01
(PID.TID 0000.0001) %MON dynstat_sss_mean             =   1.7000000006094E+01
(PID.TID 0000.0001) %MON dynstat_sss_sd               =   1.8685315282516E-02
(PID.TID 0000.0001) %MON dynstat_sss_del2             =   1.8850210795834E-04
(PID.TID 0000.0001) %MON extforcing_qnet_max          =   0.0000000000000E+00
(PID.TID 0000.0001) %MON extforcing_qnet_min          =   0.0000000000000E+00
(PID.TID 0000.0001) %MON extforcing_qnet_mean         =   0.0000000000000E+00
(PID.TID 0000.0001) %MON extforcing_qnet_sd           =   0.0000000000000E+00
(PID.TID 0000.0001) %MON extforcing_qnet_del2         =   0.0000000000000E+00
(PID.TID 0000.0001) %MON extforcing_qsw_max           =   0.0000000000000E+00
(PID.TID 0000.0001) %MON extforcing_qsw_min           =   0.0000000000000E+00
(PID.TID 0000.0001) %MON extforcing_qsw_mean          =   0.0000000000000E+00
(PID.TID 0000.0001) %MON extforcing_qsw_sd            =   0.0000000000000E+00
(PID.TID 0000.0001) %MON extforcing_qsw_del2          =   0.0000000000000E+00
(PID.TID 0000.0001) %MON extforcing_empmr_max         =   0.0000000000000E+00
(PID.TID 0000.0001) %MON extforcing_empmr_min         =   0.0000000000000E+00
(PID.TID 0000.0001) %MON extforcing_empmr_mean        =   0.0000000000000E+00
(PID.TID 0000.0001) %MON extforcing_empmr_sd          =   0.0000000000000E+00
(PID.TID 0000.0001) %MON extforcing_empmr_del2        =   0.0000000000000E+00
(PID.TID 0000.0001) %MON extforcing_fu_max            =   0.0000000000000E+00
(PID.TID 0000.0001) %MON extforcing_fu_min            =   0.0000000000000E+00
(PID.TID 0000.0001) %MON extforcing_fu_mean           =   0.0000000000000E+00
(PID.TID 0000.0001) %MON extforcing_fu_sd             =   0.0000000000000E+00
(PID.TID 0000.0001) %MON extforcing_fu_del2           =   0.0000000000000E+00
(PID.TID 0000.0001) %MON extforcing_fv_max            =   0.0000000000000E+00
(PID.TID 0000.0001) %MON extforcing_fv_min            =   0.0000000000000E+00
(PID.TID 0000.0001) %MON extforcing_fv_mean           =   0.0000000000000E+00
(PID.TID 0000.0001) %MON extforcing_fv_sd             =   0.0000000000000E+00
(PID.TID 0000.0001) %MON extforcing_fv_del2           =   0.0000000000000E+00
(PID.TID 0000.0001) %MON advcfl_uvel_max              =   3.9415204433693E-03
(PID.TID 0000.0001) %MON advcfl_vvel_max              =   1.5053559468732E-02
(PID.TID 0000.0001) %MON advcfl_wvel_max              =   5.4980269398412E-02
(PID.TID 0000.0001) %MON advcfl_W_hf_max              =   5.4980269398412E-02
(PID.TID 0000.0001) %MON pe_b_mean                    =   3.4239216080819E-09
(PID.TID 0000.0001) %MON ke_max                       =   8.3521742760875E-05
(PID.TID 0000.0001) %MON ke_mean                      =   3.5742074865897E-06
(PID.TID 0000.0001) %MON ke_vol                       =   2.5000000000000E+11
(PID.TID 0000.0001) %MON vort_r_min                   =  -1.1267010181598E-06
(PID.TID 0000.0001) %MON vort_r_max                   =   1.1370907006881E-06
(PID.TID 0000.0001) %MON vort_a_mean                  =   7.2900000000000E-05
(PID.TID 0000.0001) %MON vort_a_sd                    =   2.6242458841585E-07
(PID.TID 0000.0001) %MON vort_p_mean                  =   7.7363265306122E-05
(PID.TID 0000.0001) %MON vort_p_sd                    =   3.0923590889666E-05
(PID.TID 0000.0001) %MON surfExpan_theta_mean         =   1.7348913003728E-13
(PID.TID 0000.0001) %MON surfExpan_salt_mean          =  -3.8824140043484E-17
(PID.TID 0000.0001) // =======================================================
(PID.TID 0000.0001) // End MONITOR dynamic field statistics
(PID.TID 0000.0001) // =======================================================
 Computing Diagnostic # 133  momKE        Counter:       6   Parms: SM      MR      
 Computing Diagnostic # 134  momHDiv      Counter:       6   Parms: SM      MR      
 Computing Diagnostic # 135  momVort3     Counter:       6   Parms: SZ      MR      
 Computing Diagnostic # 136  Strain       Counter:       6   Parms: SZ      MR      
 Computing Diagnostic # 137  Tension      Counter:       6   Parms: SM      MR      
 Computing Diagnostic # 109  VISCAHD      Counter:       6   Parms: SM      MR      
 Computing Diagnostic # 110  VISCA4D      Counter:       6   Parms: SM      MR      
 Computing Diagnostic # 107  VISCAHZ      Counter:       6   Parms: SZ      MR      
 Computing Diagnostic # 108  VISCA4Z      Counter:       6   Parms: SZ      MR      
 Computing Diagnostic # 115  VAHDMAX      Counter:       6   Parms: SM      MR      
 Computing Diagnostic # 116  VA4DMAX      Counter:       6   Parms: SM      MR      
 Computing Diagnostic # 113  VAHZMAX      Counter:       6   Parms: SZ      MR      
 Computing Diagnostic # 114  VA4ZMAX      Counter:       6   Parms: SZ      MR      
 Computing Diagnostic # 119  VAHDMIN      Counter:       6   Parms: SM      MR      
 Computing Diagnostic # 120  VA4DMIN      Counter:       6   Parms: SM      MR      
 Computing Diagnostic # 117  VAHZMIN      Counter:       6   Parms: SZ      MR      
 Computing Diagnostic # 118  VA4ZMIN      Counter:       6   Parms: SZ      MR      
 Computing Diagnostic # 123  VAHDLTH      Counter:       6   Parms: SM      MR      
 Computing Diagnostic # 124  VA4DLTH      Counter:       6   Parms: SM      MR      
 Computing Diagnostic # 121  VAHZLTH      Counter:       6   Parms: SZ      MR      
 Computing Diagnostic # 122  VA4ZLTH      Counter:       6   Parms: SZ      MR      
 Computing Diagnostic # 127  VAHDLTHD     Counter:       6   Parms: SM      MR      
 Computing Diagnostic # 128  VA4DLTHD     Counter:       6   Parms: SM      MR      
 Computing Diagnostic # 125  VAHZLTHD     Counter:       6   Parms: SZ      MR      
 Computing Diagnostic # 126  VA4ZLTHD     Counter:       6   Parms: SZ      MR      
 Computing Diagnostic # 131  VAHDSMAG     Counter:       6   Parms: SM      MR      
 Computing Diagnostic # 132  VA4DSMAG     Counter:       6   Parms: SM      MR      
 Computing Diagnostic # 129  VAHZSMAG     Counter:       6   Parms: SZ      MR      
 Computing Diagnostic # 130  VA4ZSMAG     Counter:       6   Parms: SZ      MR      
 cg2d: Sum(rhs),rhsMax =   2.73309478347750E-14  6.55786032389198E-04
(PID.TID 0000.0001)                    cg2d_init_res =    5.52341807533337E-02
(PID.TID 0000.0001)                       cg2d_iters =    74
(PID.TID 0000.0001)                         cg2d_res =    6.66883192436178E-12
(PID.TID 0000.0001) // =======================================================
(PID.TID 0000.0001) // Begin MONITOR dynamic field statistics
(PID.TID 0000.0001) // =======================================================
(PID.TID 0000.0001) %MON time_tsnumber                =                     7
(PID.TID 0000.0001) %MON time_secondsf                =   8.4000000000000E+03
(PID.TID 0000.0001) %MON dynstat_eta_max              =   4.0805579423649E-04
(PID.TID 0000.0001) %MON dynstat_eta_min              =  -4.0744997939901E-04
(PID.TID 0000.0001) %MON dynstat_eta_mean             =  -8.0314202932641E-18
(PID.TID 0000.0001) %MON dynstat_eta_sd               =   3.7363815212310E-04
(PID.TID 0000.0001) %MON dynstat_eta_del2             =   3.7946438125275E-06
(PID.TID 0000.0001) %MON dynstat_uvel_max             =   4.4616745663402E-03
(PID.TID 0000.0001) %MON dynstat_uvel_min             =  -4.4652902421675E-03
(PID.TID 0000.0001) %MON dynstat_uvel_mean            =  -9.1464930695539E-07
(PID.TID 0000.0001) %MON dynstat_uvel_sd              =   9.0192261108658E-04
(PID.TID 0000.0001) %MON dynstat_uvel_del2            =   3.2887036277316E-05
(PID.TID 0000.0001) %MON dynstat_vvel_max             =   1.4421892738412E-02
(PID.TID 0000.0001) %MON dynstat_vvel_min             =  -1.4420152465316E-02
(PID.TID 0000.0001) %MON dynstat_vvel_mean            =   9.1274709636660E-11
(PID.TID 0000.0001) %MON dynstat_vvel_sd              =   3.0343578188488E-03
(PID.TID 0000.0001) %MON dynstat_vvel_del2            =   1.0994770803064E-04
(PID.TID 0000.0001) %MON dynstat_wvel_max             =   2.6317014059560E-04
(PID.TID 0000.0001) %MON dynstat_wvel_min             =  -2.6377469079684E-04
(PID.TID 0000.0001) %MON dynstat_wvel_mean            =   1.3205369287513E-21
(PID.TID 0000.0001) %MON dynstat_wvel_sd              =   8.1052464338166E-05
(PID.TID 0000.0001) %MON dynstat_wvel_del2            =   6.9056736308563E-06
(PID.TID 0000.0001) %MON dynstat_theta_max            =   1.7020391872709E+01
(PID.TID 0000.0001) %MON dynstat_theta_min            =   1.6979608188987E+01
(PID.TID 0000.0001) %MON dynstat_theta_mean           =   1.6999999916889E+01
(PID.TID 0000.0001) %MON dynstat_theta_sd             =   1.8684935311633E-02
(PID.TID 0000.0001) %MON dynstat_theta_del2           =   1.9111435854467E-04
(PID.TID 0000.0001) %MON dynstat_salt_max             =   1.7020387109310E+01
(PID.TID 0000.0001) %MON dynstat_salt_min             =   1.6979612982854E+01
(PID.TID 0000.0001) %MON dynstat_salt_mean            =   1.7000000005831E+01
(PID.TID 0000.0001) %MON dynstat_salt_sd              =   1.8685318205383E-02
(PID.TID 0000.0001) %MON dynstat_salt_del2            =   1.8848680358232E-04
(PID.TID 0000.0001) %MON dynstat_sst_max              =   1.7020391872709E+01
(PID.TID 0000.0001) %MON dynstat_sst_min              =   1.6979608189728E+01
(PID.TID 0000.0001) %MON dynstat_sst_mean             =   1.7000081551564E+01
(PID.TID 0000.0001) %MON dynstat_sst_sd               =   1.8684692658374E-02
(PID.TID 0000.0001) %MON dynstat_sst_del2             =   1.9300771368701E-04
(PID.TID 0000.0001) %MON dynstat_sss_max              =   1.7020387109310E+01
(PID.TID 0000.0001) %MON dynstat_sss_min              =   1.6979612982854E+01
(PID.TID 0000.0001) %MON dynstat_sss_mean             =   1.7000000006150E+01
(PID.TID 0000.0001) %MON dynstat_sss_sd               =   1.8685307149201E-02
(PID.TID 0000.0001) %MON dynstat_sss_del2             =   1.8854304385981E-04
(PID.TID 0000.0001) %MON extforcing_qnet_max          =   0.0000000000000E+00
(PID.TID 0000.0001) %MON extforcing_qnet_min          =   0.0000000000000E+00
(PID.TID 0000.0001) %MON extforcing_qnet_mean         =   0.0000000000000E+00
(PID.TID 0000.0001) %MON extforcing_qnet_sd           =   0.0000000000000E+00
(PID.TID 0000.0001) %MON extforcing_qnet_del2         =   0.0000000000000E+00
(PID.TID 0000.0001) %MON extforcing_qsw_max           =   0.0000000000000E+00
(PID.TID 0000.0001) %MON extforcing_qsw_min           =   0.0000000000000E+00
(PID.TID 0000.0001) %MON extforcing_qsw_mean          =   0.0000000000000E+00
(PID.TID 0000.0001) %MON extforcing_qsw_sd            =   0.0000000000000E+00
(PID.TID 0000.0001) %MON extforcing_qsw_del2          =   0.0000000000000E+00
(PID.TID 0000.0001) %MON extforcing_empmr_max         =   0.0000000000000E+00
(PID.TID 0000.0001) %MON extforcing_empmr_min         =   0.0000000000000E+00
(PID.TID 0000.0001) %MON extforcing_empmr_mean        =   0.0000000000000E+00
(PID.TID 0000.0001) %MON extforcing_empmr_sd          =   0.0000000000000E+00
(PID.TID 0000.0001) %MON extforcing_empmr_del2        =   0.0000000000000E+00
(PID.TID 0000.0001) %MON extforcing_fu_max            =   0.0000000000000E+00
(PID.TID 0000.0001) %MON extforcing_fu_min            =   0.0000000000000E+00
(PID.TID 0000.0001) %MON extforcing_fu_mean           =   0.0000000000000E+00
(PID.TID 0000.0001) %MON extforcing_fu_sd             =   0.0000000000000E+00
(PID.TID 0000.0001) %MON extforcing_fu_del2           =   0.0000000000000E+00
(PID.TID 0000.0001) %MON extforcing_fv_max            =   0.0000000000000E+00
(PID.TID 0000.0001) %MON extforcing_fv_min            =   0.0000000000000E+00
(PID.TID 0000.0001) %MON extforcing_fv_mean           =   0.0000000000000E+00
(PID.TID 0000.0001) %MON extforcing_fv_sd             =   0.0000000000000E+00
(PID.TID 0000.0001) %MON extforcing_fv_del2           =   0.0000000000000E+00
(PID.TID 0000.0001) %MON advcfl_uvel_max              =   5.3583482906010E-03
(PID.TID 0000.0001) %MON advcfl_vvel_max              =   1.7306271286095E-02
(PID.TID 0000.0001) %MON advcfl_wvel_max              =   6.3305925791242E-02
(PID.TID 0000.0001) %MON advcfl_W_hf_max              =   6.3305925791242E-02
(PID.TID 0000.0001) %MON pe_b_mean                    =   3.4238241204062E-09
(PID.TID 0000.0001) %MON ke_max                       =   1.1300803496502E-04
(PID.TID 0000.0001) %MON ke_mean                      =   4.8262497554346E-06
(PID.TID 0000.0001) %MON ke_vol                       =   2.5000000000000E+11
(PID.TID 0000.0001) %MON vort_r_min                   =  -1.5308687739842E-06
(PID.TID 0000.0001) %MON vort_r_max                   =   1.5509769135194E-06
(PID.TID 0000.0001) %MON vort_a_mean                  =   7.2899999999999E-05
(PID.TID 0000.0001) %MON vort_a_sd                    =   3.5719650105618E-07
(PID.TID 0000.0001) %MON vort_p_mean                  =   7.7363265306122E-05
(PID.TID 0000.0001) %MON vort_p_sd                    =   3.0924598517097E-05
(PID.TID 0000.0001) %MON surfExpan_theta_mean         =  -1.0955656848906E-13
(PID.TID 0000.0001) %MON surfExpan_salt_mean          =  -3.5040819328092E-17
(PID.TID 0000.0001) // =======================================================
(PID.TID 0000.0001) // End MONITOR dynamic field statistics
(PID.TID 0000.0001) // =======================================================
 cg2d: Sum(rhs),rhsMax =   7.06002097061731E-14  6.54444494233433E-04
(PID.TID 0000.0001)                    cg2d_init_res =    5.47422293110201E-02
(PID.TID 0000.0001)                       cg2d_iters =    74
(PID.TID 0000.0001)                         cg2d_res =    7.95309016936176E-12
(PID.TID 0000.0001) // =======================================================
(PID.TID 0000.0001) // Begin MONITOR dynamic field statistics
(PID.TID 0000.0001) // =======================================================
(PID.TID 0000.0001) %MON time_tsnumber                =                     8
(PID.TID 0000.0001) %MON time_secondsf                =   9.6000000000000E+03
(PID.TID 0000.0001) %MON dynstat_eta_max              =   4.0811536851700E-04
(PID.TID 0000.0001) %MON dynstat_eta_min              =  -4.0738933364601E-04
(PID.TID 0000.0001) %MON dynstat_eta_mean             =  -1.6946796677075E-17
(PID.TID 0000.0001) %MON dynstat_eta_sd               =   3.7363291724029E-04
(PID.TID 0000.0001) %MON dynstat_eta_del2             =   3.7965576762181E-06
(PID.TID 0000.0001) %MON dynstat_uvel_max             =   5.7997015853715E-03
(PID.TID 0000.0001) %MON dynstat_uvel_min             =  -5.8034756365588E-03
(PID.TID 0000.0001) %MON dynstat_uvel_mean            =  -9.1461676372433E-07
(PID.TID 0000.0001) %MON dynstat_uvel_sd              =   1.1726226595670E-03
(PID.TID 0000.0001) %MON dynstat_uvel_del2            =   4.2560399403040E-05
(PID.TID 0000.0001) %MON dynstat_vvel_max             =   1.6202241277230E-02
(PID.TID 0000.0001) %MON dynstat_vvel_min             =  -1.6200277426805E-02
(PID.TID 0000.0001) %MON dynstat_vvel_mean            =   5.6614007184077E-11
(PID.TID 0000.0001) %MON dynstat_vvel_sd              =   3.4028030486226E-03
(PID.TID 0000.0001) %MON dynstat_vvel_del2            =   1.2380591723288E-04
(PID.TID 0000.0001) %MON dynstat_wvel_max             =   2.9617350941256E-04
(PID.TID 0000.0001) %MON dynstat_wvel_min             =  -2.9686016002442E-04
(PID.TID 0000.0001) %MON dynstat_wvel_mean            =   6.8232541979388E-22
(PID.TID 0000.0001) %MON dynstat_wvel_sd              =   9.1058700418837E-05
(PID.TID 0000.0001) %MON dynstat_wvel_del2            =   7.7891267944595E-06
(PID.TID 0000.0001) %MON dynstat_theta_max            =   1.7020391872709E+01
(PID.TID 0000.0001) %MON dynstat_theta_min            =   1.6979608188987E+01
(PID.TID 0000.0001) %MON dynstat_theta_mean           =   1.6999999916890E+01
(PID.TID 0000.0001) %MON dynstat_theta_sd             =   1.8684825717437E-02
(PID.TID 0000.0001) %MON dynstat_theta_del2           =   1.9161350613558E-04
(PID.TID 0000.0001) %MON dynstat_salt_max             =   1.7020387109310E+01
(PID.TID 0000.0001) %MON dynstat_salt_min             =   1.6979612982854E+01
(PID.TID 0000.0001) %MON dynstat_salt_mean            =   1.7000000005831E+01
(PID.TID 0000.0001) %MON dynstat_salt_sd              =   1.8685312777494E-02
(PID.TID 0000.0001) %MON dynstat_salt_del2            =   1.8851415494364E-04
(PID.TID 0000.0001) %MON dynstat_sst_max              =   1.7020391872709E+01
(PID.TID 0000.0001) %MON dynstat_sst_min              =   1.6979608189944E+01
(PID.TID 0000.0001) %MON dynstat_sst_mean             =   1.7000103830135E+01
(PID.TID 0000.0001) %MON dynstat_sst_sd               =   1.8684541547053E-02
(PID.TID 0000.0001) %MON dynstat_sst_del2             =   1.9397285763957E-04
(PID.TID 0000.0001) %MON dynstat_sss_max              =   1.7020387109310E+01
(PID.TID 0000.0001) %MON dynstat_sss_min              =   1.6979612982854E+01
(PID.TID 0000.0001) %MON dynstat_sss_mean             =   1.7000000006200E+01
(PID.TID 0000.0001) %MON dynstat_sss_sd               =   1.8685296585722E-02
(PID.TID 0000.0001) %MON dynstat_sss_del2             =   1.8859581920641E-04
(PID.TID 0000.0001) %MON extforcing_qnet_max          =   0.0000000000000E+00
(PID.TID 0000.0001) %MON extforcing_qnet_min          =   0.0000000000000E+00
(PID.TID 0000.0001) %MON extforcing_qnet_mean         =   0.0000000000000E+00
(PID.TID 0000.0001) %MON extforcing_qnet_sd           =   0.0000000000000E+00
(PID.TID 0000.0001) %MON extforcing_qnet_del2         =   0.0000000000000E+00
(PID.TID 0000.0001) %MON extforcing_qsw_max           =   0.0000000000000E+00
(PID.TID 0000.0001) %MON extforcing_qsw_min           =   0.0000000000000E+00
(PID.TID 0000.0001) %MON extforcing_qsw_mean          =   0.0000000000000E+00
(PID.TID 0000.0001) %MON extforcing_qsw_sd            =   0.0000000000000E+00
(PID.TID 0000.0001) %MON extforcing_qsw_del2          =   0.0000000000000E+00
(PID.TID 0000.0001) %MON extforcing_empmr_max         =   0.0000000000000E+00
(PID.TID 0000.0001) %MON extforcing_empmr_min         =   0.0000000000000E+00
(PID.TID 0000.0001) %MON extforcing_empmr_mean        =   0.0000000000000E+00
(PID.TID 0000.0001) %MON extforcing_empmr_sd          =   0.0000000000000E+00
(PID.TID 0000.0001) %MON extforcing_empmr_del2        =   0.0000000000000E+00
(PID.TID 0000.0001) %MON extforcing_fu_max            =   0.0000000000000E+00
(PID.TID 0000.0001) %MON extforcing_fu_min            =   0.0000000000000E+00
(PID.TID 0000.0001) %MON extforcing_fu_mean           =   0.0000000000000E+00
(PID.TID 0000.0001) %MON extforcing_fu_sd             =   0.0000000000000E+00
(PID.TID 0000.0001) %MON extforcing_fu_del2           =   0.0000000000000E+00
(PID.TID 0000.0001) %MON extforcing_fv_max            =   0.0000000000000E+00
(PID.TID 0000.0001) %MON extforcing_fv_min            =   0.0000000000000E+00
(PID.TID 0000.0001) %MON extforcing_fv_mean           =   0.0000000000000E+00
(PID.TID 0000.0001) %MON extforcing_fv_sd             =   0.0000000000000E+00
(PID.TID 0000.0001) %MON extforcing_fv_del2           =   0.0000000000000E+00
(PID.TID 0000.0001) %MON advcfl_uvel_max              =   6.9641707638705E-03
(PID.TID 0000.0001) %MON advcfl_vvel_max              =   1.9442689532676E-02
(PID.TID 0000.0001) %MON advcfl_wvel_max              =   7.1246438405861E-02
(PID.TID 0000.0001) %MON advcfl_W_hf_max              =   7.1246438405861E-02
(PID.TID 0000.0001) %MON pe_b_mean                    =   3.4237281816357E-09
(PID.TID 0000.0001) %MON ke_max                       =   1.4656951406868E-04
(PID.TID 0000.0001) %MON ke_mean                      =   6.2454752912301E-06
(PID.TID 0000.0001) %MON ke_vol                       =   2.5000000000000E+11
(PID.TID 0000.0001) %MON vort_r_min                   =  -1.9878174762374E-06
(PID.TID 0000.0001) %MON vort_r_max                   =   2.0228136960919E-06
(PID.TID 0000.0001) %MON vort_a_mean                  =   7.2900000000000E-05
(PID.TID 0000.0001) %MON vort_a_sd                    =   4.6478386476947E-07
(PID.TID 0000.0001) %MON vort_p_mean                  =   7.7363265306122E-05
(PID.TID 0000.0001) %MON vort_p_sd                    =   3.0926115899827E-05
(PID.TID 0000.0001) %MON surfExpan_theta_mean         =  -1.1164372495221E-13
(PID.TID 0000.0001) %MON surfExpan_salt_mean          =  -2.8058712103415E-17
(PID.TID 0000.0001) // =======================================================
(PID.TID 0000.0001) // End MONITOR dynamic field statistics
(PID.TID 0000.0001) // =======================================================
 cg2d: Sum(rhs),rhsMax =   2.48700636907434E-13  6.52396260518649E-04
(PID.TID 0000.0001)                    cg2d_init_res =    5.21015942902733E-02
(PID.TID 0000.0001)                       cg2d_iters =    74
(PID.TID 0000.0001)                         cg2d_res =    9.39129855772997E-12
(PID.TID 0000.0001) // =======================================================
(PID.TID 0000.0001) // Begin MONITOR dynamic field statistics
(PID.TID 0000.0001) // =======================================================
(PID.TID 0000.0001) %MON time_tsnumber                =                     9
(PID.TID 0000.0001) %MON time_secondsf                =   1.0800000000000E+04
(PID.TID 0000.0001) %MON dynstat_eta_max              =   4.0815958896227E-04
(PID.TID 0000.0001) %MON dynstat_eta_min              =  -4.0734516847157E-04
(PID.TID 0000.0001) %MON dynstat_eta_mean             =  -1.1315241863485E-17
(PID.TID 0000.0001) %MON dynstat_eta_sd               =   3.7362632071610E-04
(PID.TID 0000.0001) %MON dynstat_eta_del2             =   3.7973537916118E-06
(PID.TID 0000.0001) %MON dynstat_uvel_max             =   7.2852231754009E-03
(PID.TID 0000.0001) %MON dynstat_uvel_min             =  -7.2891969653022E-03
(PID.TID 0000.0001) %MON dynstat_uvel_mean            =  -9.1461247080628E-07
(PID.TID 0000.0001) %MON dynstat_uvel_sd              =   1.4731731254860E-03
(PID.TID 0000.0001) %MON dynstat_uvel_del2            =   5.3311975967449E-05
(PID.TID 0000.0001) %MON dynstat_vvel_max             =   1.7873321861056E-02
(PID.TID 0000.0001) %MON dynstat_vvel_min             =  -1.7871143812920E-02
(PID.TID 0000.0001) %MON dynstat_vvel_mean            =   6.0104711853190E-11
(PID.TID 0000.0001) %MON dynstat_vvel_sd              =   3.7461631137408E-03
(PID.TID 0000.0001) %MON dynstat_vvel_del2            =   1.3693930364237E-04
(PID.TID 0000.0001) %MON dynstat_wvel_max             =   3.2735694012399E-04
(PID.TID 0000.0001) %MON dynstat_wvel_min             =  -3.2812418528040E-04
(PID.TID 0000.0001) %MON dynstat_wvel_mean            =   1.2457095833062E-22
(PID.TID 0000.0001) %MON dynstat_wvel_sd              =   1.0045338177481E-04
(PID.TID 0000.0001) %MON dynstat_wvel_del2            =   8.6328250611788E-06
(PID.TID 0000.0001) %MON dynstat_theta_max            =   1.7020391872709E+01
(PID.TID 0000.0001) %MON dynstat_theta_min            =   1.6979608188987E+01
(PID.TID 0000.0001) %MON dynstat_theta_mean           =   1.6999999916891E+01
(PID.TID 0000.0001) %MON dynstat_theta_sd             =   1.8684703321191E-02
(PID.TID 0000.0001) %MON dynstat_theta_del2           =   1.9214054945640E-04
(PID.TID 0000.0001) %MON dynstat_salt_max             =   1.7020387109310E+01
(PID.TID 0000.0001) %MON dynstat_salt_min             =   1.6979612982854E+01
(PID.TID 0000.0001) %MON dynstat_salt_mean            =   1.7000000005831E+01
(PID.TID 0000.0001) %MON dynstat_salt_sd              =   1.8685305965474E-02
(PID.TID 0000.0001) %MON dynstat_salt_del2            =   1.8854831236858E-04
(PID.TID 0000.0001) %MON dynstat_sst_max              =   1.7020391872709E+01
(PID.TID 0000.0001) %MON dynstat_sst_min              =   1.6979608190188E+01
(PID.TID 0000.0001) %MON dynstat_sst_mean             =   1.7000128345717E+01
(PID.TID 0000.0001) %MON dynstat_sst_sd               =   1.8684383764624E-02
(PID.TID 0000.0001) %MON dynstat_sst_del2             =   1.9498663057041E-04
(PID.TID 0000.0001) %MON dynstat_sss_max              =   1.7020387109310E+01
(PID.TID 0000.0001) %MON dynstat_sss_min              =   1.6979612982854E+01
(PID.TID 0000.0001) %MON dynstat_sss_mean             =   1.7000000006240E+01
(PID.TID 0000.0001) %MON dynstat_sss_sd               =   1.8685283330656E-02
(PID.TID 0000.0001) %MON dynstat_sss_del2             =   1.8866151238102E-04
(PID.TID 0000.0001) %MON extforcing_qnet_max          =   0.0000000000000E+00
(PID.TID 0000.0001) %MON extforcing_qnet_min          =   0.0000000000000E+00
(PID.TID 0000.0001) %MON extforcing_qnet_mean         =   0.0000000000000E+00
(PID.TID 0000.0001) %MON extforcing_qnet_sd           =   0.0000000000000E+00
(PID.TID 0000.0001) %MON extforcing_qnet_del2         =   0.0000000000000E+00
(PID.TID 0000.0001) %MON extforcing_qsw_max           =   0.0000000000000E+00
(PID.TID 0000.0001) %MON extforcing_qsw_min           =   0.0000000000000E+00
(PID.TID 0000.0001) %MON extforcing_qsw_mean          =   0.0000000000000E+00
(PID.TID 0000.0001) %MON extforcing_qsw_sd            =   0.0000000000000E+00
(PID.TID 0000.0001) %MON extforcing_qsw_del2          =   0.0000000000000E+00
(PID.TID 0000.0001) %MON extforcing_empmr_max         =   0.0000000000000E+00
(PID.TID 0000.0001) %MON extforcing_empmr_min         =   0.0000000000000E+00
(PID.TID 0000.0001) %MON extforcing_empmr_mean        =   0.0000000000000E+00
(PID.TID 0000.0001) %MON extforcing_empmr_sd          =   0.0000000000000E+00
(PID.TID 0000.0001) %MON extforcing_empmr_del2        =   0.0000000000000E+00
(PID.TID 0000.0001) %MON extforcing_fu_max            =   0.0000000000000E+00
(PID.TID 0000.0001) %MON extforcing_fu_min            =   0.0000000000000E+00
(PID.TID 0000.0001) %MON extforcing_fu_mean           =   0.0000000000000E+00
(PID.TID 0000.0001) %MON extforcing_fu_sd             =   0.0000000000000E+00
(PID.TID 0000.0001) %MON extforcing_fu_del2           =   0.0000000000000E+00
(PID.TID 0000.0001) %MON extforcing_fv_max            =   0.0000000000000E+00
(PID.TID 0000.0001) %MON extforcing_fv_min            =   0.0000000000000E+00
(PID.TID 0000.0001) %MON extforcing_fv_mean           =   0.0000000000000E+00
(PID.TID 0000.0001) %MON extforcing_fv_sd             =   0.0000000000000E+00
(PID.TID 0000.0001) %MON extforcing_fv_del2           =   0.0000000000000E+00
(PID.TID 0000.0001) %MON advcfl_uvel_max              =   8.7470363583626E-03
(PID.TID 0000.0001) %MON advcfl_vvel_max              =   2.1447986233267E-02
(PID.TID 0000.0001) %MON advcfl_wvel_max              =   7.8749804467296E-02
(PID.TID 0000.0001) %MON advcfl_W_hf_max              =   7.8749804467296E-02
(PID.TID 0000.0001) %MON pe_b_mean                    =   3.4236072902187E-09
(PID.TID 0000.0001) %MON ke_max                       =   1.8399952695209E-04
(PID.TID 0000.0001) %MON ke_mean                      =   7.8213142229662E-06
(PID.TID 0000.0001) %MON ke_vol                       =   2.5000000000000E+11
(PID.TID 0000.0001) %MON vort_r_min                   =  -2.4936583481889E-06
(PID.TID 0000.0001) %MON vort_r_max                   =   2.5500612976195E-06
(PID.TID 0000.0001) %MON vort_a_mean                  =   7.2900000000000E-05
(PID.TID 0000.0001) %MON vort_a_sd                    =   5.8446302537876E-07
(PID.TID 0000.0001) %MON vort_p_mean                  =   7.7363265306122E-05
(PID.TID 0000.0001) %MON vort_p_sd                    =   3.0928270368319E-05
(PID.TID 0000.0001) %MON surfExpan_theta_mean         =  -1.3040314736790E-13
(PID.TID 0000.0001) %MON surfExpan_salt_mean          =  -1.6915728166290E-17
(PID.TID 0000.0001) // =======================================================
(PID.TID 0000.0001) // End MONITOR dynamic field statistics
(PID.TID 0000.0001) // =======================================================
 cg2d: Sum(rhs),rhsMax =   1.32616682392561E-13  6.49479215766332E-04
(PID.TID 0000.0001)                    cg2d_init_res =    4.99328451338091E-02
(PID.TID 0000.0001)                       cg2d_iters =    75
(PID.TID 0000.0001)                         cg2d_res =    7.14854628547823E-12
(PID.TID 0000.0001) // =======================================================
(PID.TID 0000.0001) // Begin MONITOR dynamic field statistics
(PID.TID 0000.0001) // =======================================================
(PID.TID 0000.0001) %MON time_tsnumber                =                    10
(PID.TID 0000.0001) %MON time_secondsf                =   1.2000000000000E+04
(PID.TID 0000.0001) %MON dynstat_eta_max              =   4.0817987891471E-04
(PID.TID 0000.0001) %MON dynstat_eta_min              =  -4.0732488812742E-04
(PID.TID 0000.0001) %MON dynstat_eta_mean             =  -6.8885128712282E-19
(PID.TID 0000.0001) %MON dynstat_eta_sd               =   3.7361758530140E-04
(PID.TID 0000.0001) %MON dynstat_eta_del2             =   3.7965715242880E-06
(PID.TID 0000.0001) %MON dynstat_uvel_max             =   8.9070810605943E-03
(PID.TID 0000.0001) %MON dynstat_uvel_min             =  -8.9112988139586E-03
(PID.TID 0000.0001) %MON dynstat_uvel_mean            =  -9.1460647935593E-07
(PID.TID 0000.0001) %MON dynstat_uvel_sd              =   1.8013445409923E-03
(PID.TID 0000.0001) %MON dynstat_uvel_del2            =   6.5072366038856E-05
(PID.TID 0000.0001) %MON dynstat_vvel_max             =   1.9423381509255E-02
(PID.TID 0000.0001) %MON dynstat_vvel_min             =  -1.9421000219497E-02
(PID.TID 0000.0001) %MON dynstat_vvel_mean            =   7.9525095470390E-11
(PID.TID 0000.0001) %MON dynstat_vvel_sd              =   4.0619190319385E-03
(PID.TID 0000.0001) %MON dynstat_vvel_del2            =   1.4926523967414E-04
(PID.TID 0000.0001) %MON dynstat_wvel_max             =   3.5651110730152E-04
(PID.TID 0000.0001) %MON dynstat_wvel_min             =  -3.5735738945387E-04
(PID.TID 0000.0001) %MON dynstat_wvel_mean            =  -2.1047962247935E-21
(PID.TID 0000.0001) %MON dynstat_wvel_sd              =   1.0917234893666E-04
(PID.TID 0000.0001) %MON dynstat_wvel_del2            =   9.4325338427651E-06
(PID.TID 0000.0001) %MON dynstat_theta_max            =   1.7020391872709E+01
(PID.TID 0000.0001) %MON dynstat_theta_min            =   1.6979608188987E+01
(PID.TID 0000.0001) %MON dynstat_theta_mean           =   1.6999999916891E+01
(PID.TID 0000.0001) %MON dynstat_theta_sd             =   1.8684568536967E-02
(PID.TID 0000.0001) %MON dynstat_theta_del2           =   1.9268490839801E-04
(PID.TID 0000.0001) %MON dynstat_salt_max             =   1.7020387109310E+01
(PID.TID 0000.0001) %MON dynstat_salt_min             =   1.6979612982854E+01
(PID.TID 0000.0001) %MON dynstat_salt_mean            =   1.7000000005831E+01
(PID.TID 0000.0001) %MON dynstat_salt_sd              =   1.8685297644988E-02
(PID.TID 0000.0001) %MON dynstat_salt_del2            =   1.8858977994307E-04
(PID.TID 0000.0001) %MON dynstat_sst_max              =   1.7020391872709E+01
(PID.TID 0000.0001) %MON dynstat_sst_min              =   1.6979608190460E+01
(PID.TID 0000.0001) %MON dynstat_sst_mean             =   1.7000154913709E+01
(PID.TID 0000.0001) %MON dynstat_sst_sd               =   1.8684222075834E-02
(PID.TID 0000.0001) %MON dynstat_sst_del2             =   1.9602727093392E-04
(PID.TID 0000.0001) %MON dynstat_sss_max              =   1.7020387109310E+01
(PID.TID 0000.0001) %MON dynstat_sss_min              =   1.6979612982854E+01
(PID.TID 0000.0001) %MON dynstat_sss_mean             =   1.7000000006267E+01
(PID.TID 0000.0001) %MON dynstat_sss_sd               =   1.8685267144198E-02
(PID.TID 0000.0001) %MON dynstat_sss_del2             =   1.8874090251061E-04
(PID.TID 0000.0001) %MON extforcing_qnet_max          =   0.0000000000000E+00
(PID.TID 0000.0001) %MON extforcing_qnet_min          =   0.0000000000000E+00
(PID.TID 0000.0001) %MON extforcing_qnet_mean         =   0.0000000000000E+00
(PID.TID 0000.0001) %MON extforcing_qnet_sd           =   0.0000000000000E+00
(PID.TID 0000.0001) %MON extforcing_qnet_del2         =   0.0000000000000E+00
(PID.TID 0000.0001) %MON extforcing_qsw_max           =   0.0000000000000E+00
(PID.TID 0000.0001) %MON extforcing_qsw_min           =   0.0000000000000E+00
(PID.TID 0000.0001) %MON extforcing_qsw_mean          =   0.0000000000000E+00
(PID.TID 0000.0001) %MON extforcing_qsw_sd            =   0.0000000000000E+00
(PID.TID 0000.0001) %MON extforcing_qsw_del2          =   0.0000000000000E+00
(PID.TID 0000.0001) %MON extforcing_empmr_max         =   0.0000000000000E+00
(PID.TID 0000.0001) %MON extforcing_empmr_min         =   0.0000000000000E+00
(PID.TID 0000.0001) %MON extforcing_empmr_mean        =   0.0000000000000E+00
(PID.TID 0000.0001) %MON extforcing_empmr_sd          =   0.0000000000000E+00
(PID.TID 0000.0001) %MON extforcing_empmr_del2        =   0.0000000000000E+00
(PID.TID 0000.0001) %MON extforcing_fu_max            =   0.0000000000000E+00
(PID.TID 0000.0001) %MON extforcing_fu_min            =   0.0000000000000E+00
(PID.TID 0000.0001) %MON extforcing_fu_mean           =   0.0000000000000E+00
(PID.TID 0000.0001) %MON extforcing_fu_sd             =   0.0000000000000E+00
(PID.TID 0000.0001) %MON extforcing_fu_del2           =   0.0000000000000E+00
(PID.TID 0000.0001) %MON extforcing_fv_max            =   0.0000000000000E+00
(PID.TID 0000.0001) %MON extforcing_fv_min            =   0.0000000000000E+00
(PID.TID 0000.0001) %MON extforcing_fv_mean           =   0.0000000000000E+00
(PID.TID 0000.0001) %MON extforcing_fv_sd             =   0.0000000000000E+00
(PID.TID 0000.0001) %MON extforcing_fv_del2           =   0.0000000000000E+00
(PID.TID 0000.0001) %MON advcfl_uvel_max              =   1.0693558576750E-02
(PID.TID 0000.0001) %MON advcfl_vvel_max              =   2.3308057811106E-02
(PID.TID 0000.0001) %MON advcfl_wvel_max              =   8.5765773468928E-02
(PID.TID 0000.0001) %MON advcfl_W_hf_max              =   8.5765773468928E-02
(PID.TID 0000.0001) %MON pe_b_mean                    =   3.4234472036391E-09
(PID.TID 0000.0001) %MON ke_max                       =   2.2505894581758E-04
(PID.TID 0000.0001) %MON ke_mean                      =   9.5420308825057E-06
(PID.TID 0000.0001) %MON ke_vol                       =   2.5000000000000E+11
(PID.TID 0000.0001) %MON vort_r_min                   =  -3.0440718486406E-06
(PID.TID 0000.0001) %MON vort_r_max                   =   3.1297773119789E-06
(PID.TID 0000.0001) %MON vort_a_mean                  =   7.2900000000000E-05
(PID.TID 0000.0001) %MON vort_a_sd                    =   7.1543078333223E-07
(PID.TID 0000.0001) %MON vort_p_mean                  =   7.7363265306122E-05
(PID.TID 0000.0001) %MON vort_p_sd                    =   3.0931191012255E-05
(PID.TID 0000.0001) %MON surfExpan_theta_mean         =  -1.5231199566160E-13
(PID.TID 0000.0001) %MON surfExpan_salt_mean          =  -1.7960008423610E-18
(PID.TID 0000.0001) // =======================================================
(PID.TID 0000.0001) // End MONITOR dynamic field statistics
(PID.TID 0000.0001) // =======================================================
 cg2d: Sum(rhs),rhsMax =  -7.49592987507597E-14  6.45535598704465E-04
(PID.TID 0000.0001)                    cg2d_init_res =    5.30808256659457E-02
(PID.TID 0000.0001)                       cg2d_iters =    75
(PID.TID 0000.0001)                         cg2d_res =    8.07604256844731E-12
(PID.TID 0000.0001) // =======================================================
(PID.TID 0000.0001) // Begin MONITOR dynamic field statistics
(PID.TID 0000.0001) // =======================================================
(PID.TID 0000.0001) %MON time_tsnumber                =                    11
(PID.TID 0000.0001) %MON time_secondsf                =   1.3200000000000E+04
(PID.TID 0000.0001) %MON dynstat_eta_max              =   4.0816829918390E-04
(PID.TID 0000.0001) %MON dynstat_eta_min              =  -4.0733645519517E-04
(PID.TID 0000.0001) %MON dynstat_eta_mean             =   4.8402580432594E-18
(PID.TID 0000.0001) %MON dynstat_eta_sd               =   3.7360635568718E-04
(PID.TID 0000.0001) %MON dynstat_eta_del2             =   3.7937500370029E-06
(PID.TID 0000.0001) %MON dynstat_uvel_max             =   1.0652988613536E-02
(PID.TID 0000.0001) %MON dynstat_uvel_min             =  -1.0657496750625E-02
(PID.TID 0000.0001) %MON dynstat_uvel_mean            =  -9.1459882010369E-07
(PID.TID 0000.0001) %MON dynstat_uvel_sd              =   2.1547029801972E-03
(PID.TID 0000.0001) %MON dynstat_uvel_del2            =   7.7761215045651E-05
(PID.TID 0000.0001) %MON dynstat_vvel_max             =   2.0841366574048E-02
(PID.TID 0000.0001) %MON dynstat_vvel_min             =  -2.0838794738405E-02
(PID.TID 0000.0001) %MON dynstat_vvel_mean            =   1.0163785384302E-10
(PID.TID 0000.0001) %MON dynstat_vvel_sd              =   4.3477579186952E-03
(PID.TID 0000.0001) %MON dynstat_vvel_del2            =   1.6070550252414E-04
(PID.TID 0000.0001) %MON dynstat_wvel_max             =   3.8343609153025E-04
(PID.TID 0000.0001) %MON dynstat_wvel_min             =  -3.8435984508839E-04
(PID.TID 0000.0001) %MON dynstat_wvel_mean            =   1.5672571538732E-21
(PID.TID 0000.0001) %MON dynstat_wvel_sd              =   1.1715585878750E-04
(PID.TID 0000.0001) %MON dynstat_wvel_del2            =   1.0183821120543E-05
(PID.TID 0000.0001) %MON dynstat_theta_max            =   1.7020391872709E+01
(PID.TID 0000.0001) %MON dynstat_theta_min            =   1.6979608188987E+01
(PID.TID 0000.0001) %MON dynstat_theta_mean           =   1.6999999916892E+01
(PID.TID 0000.0001) %MON dynstat_theta_sd             =   1.8684421867507E-02
(PID.TID 0000.0001) %MON dynstat_theta_del2           =   1.9323576168498E-04
(PID.TID 0000.0001) %MON dynstat_salt_max             =   1.7020387109310E+01
(PID.TID 0000.0001) %MON dynstat_salt_min             =   1.6979612982854E+01
(PID.TID 0000.0001) %MON dynstat_salt_mean            =   1.7000000005831E+01
(PID.TID 0000.0001) %MON dynstat_salt_sd              =   1.8685287703687E-02
(PID.TID 0000.0001) %MON dynstat_salt_del2            =   1.8863897626148E-04
(PID.TID 0000.0001) %MON dynstat_sst_max              =   1.7020391872709E+01
(PID.TID 0000.0001) %MON dynstat_sst_min              =   1.6979608190760E+01
(PID.TID 0000.0001) %MON dynstat_sst_mean             =   1.7000183334034E+01
(PID.TID 0000.0001) %MON dynstat_sst_sd               =   1.8684058985230E-02
(PID.TID 0000.0001) %MON dynstat_sst_del2             =   1.9707266565014E-04
(PID.TID 0000.0001) %MON dynstat_sss_max              =   1.7020387109310E+01
(PID.TID 0000.0001) %MON dynstat_sss_min              =   1.6979612982854E+01
(PID.TID 0000.0001) %MON dynstat_sss_mean             =   1.7000000006277E+01
(PID.TID 0000.0001) %MON dynstat_sss_sd               =   1.8685247810245E-02
(PID.TID 0000.0001) %MON dynstat_sss_del2             =   1.8883455542871E-04
(PID.TID 0000.0001) %MON extforcing_qnet_max          =   0.0000000000000E+00
(PID.TID 0000.0001) %MON extforcing_qnet_min          =   0.0000000000000E+00
(PID.TID 0000.0001) %MON extforcing_qnet_mean         =   0.0000000000000E+00
(PID.TID 0000.0001) %MON extforcing_qnet_sd           =   0.0000000000000E+00
(PID.TID 0000.0001) %MON extforcing_qnet_del2         =   0.0000000000000E+00
(PID.TID 0000.0001) %MON extforcing_qsw_max           =   0.0000000000000E+00
(PID.TID 0000.0001) %MON extforcing_qsw_min           =   0.0000000000000E+00
(PID.TID 0000.0001) %MON extforcing_qsw_mean          =   0.0000000000000E+00
(PID.TID 0000.0001) %MON extforcing_qsw_sd            =   0.0000000000000E+00
(PID.TID 0000.0001) %MON extforcing_qsw_del2          =   0.0000000000000E+00
(PID.TID 0000.0001) %MON extforcing_empmr_max         =   0.0000000000000E+00
(PID.TID 0000.0001) %MON extforcing_empmr_min         =   0.0000000000000E+00
(PID.TID 0000.0001) %MON extforcing_empmr_mean        =   0.0000000000000E+00
(PID.TID 0000.0001) %MON extforcing_empmr_sd          =   0.0000000000000E+00
(PID.TID 0000.0001) %MON extforcing_empmr_del2        =   0.0000000000000E+00
(PID.TID 0000.0001) %MON extforcing_fu_max            =   0.0000000000000E+00
(PID.TID 0000.0001) %MON extforcing_fu_min            =   0.0000000000000E+00
(PID.TID 0000.0001) %MON extforcing_fu_mean           =   0.0000000000000E+00
(PID.TID 0000.0001) %MON extforcing_fu_sd             =   0.0000000000000E+00
(PID.TID 0000.0001) %MON extforcing_fu_del2           =   0.0000000000000E+00
(PID.TID 0000.0001) %MON extforcing_fv_max            =   0.0000000000000E+00
(PID.TID 0000.0001) %MON extforcing_fv_min            =   0.0000000000000E+00
(PID.TID 0000.0001) %MON extforcing_fv_mean           =   0.0000000000000E+00
(PID.TID 0000.0001) %MON extforcing_fv_sd             =   0.0000000000000E+00
(PID.TID 0000.0001) %MON extforcing_fv_del2           =   0.0000000000000E+00
(PID.TID 0000.0001) %MON advcfl_uvel_max              =   1.2788996100750E-02
(PID.TID 0000.0001) %MON advcfl_vvel_max              =   2.5009639888857E-02
(PID.TID 0000.0001) %MON advcfl_wvel_max              =   9.2246362821214E-02
(PID.TID 0000.0001) %MON advcfl_W_hf_max              =   9.2246362821214E-02
(PID.TID 0000.0001) %MON pe_b_mean                    =   3.4232414134667E-09
(PID.TID 0000.0001) %MON ke_max                       =   2.6947509650243E-04
(PID.TID 0000.0001) %MON ke_mean                      =   1.1394812366078E-05
(PID.TID 0000.0001) %MON ke_vol                       =   2.5000000000000E+11
(PID.TID 0000.0001) %MON vort_r_min                   =  -3.6343506391523E-06
(PID.TID 0000.0001) %MON vort_r_max                   =   3.7586058196665E-06
(PID.TID 0000.0001) %MON vort_a_mean                  =   7.2900000000000E-05
(PID.TID 0000.0001) %MON vort_a_sd                    =   8.5680999020681E-07
(PID.TID 0000.0001) %MON vort_p_mean                  =   7.7363265306122E-05
(PID.TID 0000.0001) %MON vort_p_sd                    =   3.0935003972126E-05
(PID.TID 0000.0001) %MON surfExpan_theta_mean         =  -1.6776790516099E-13
(PID.TID 0000.0001) %MON surfExpan_salt_mean          =   1.7272984081766E-17
(PID.TID 0000.0001) // =======================================================
(PID.TID 0000.0001) // End MONITOR dynamic field statistics
(PID.TID 0000.0001) // =======================================================
 cg2d: Sum(rhs),rhsMax =  -1.65826011776227E-13  6.44088510634242E-04
(PID.TID 0000.0001)                    cg2d_init_res =    6.57089703902909E-02
(PID.TID 0000.0001)                       cg2d_iters =    75
(PID.TID 0000.0001)                         cg2d_res =    9.17692855970330E-12
(PID.TID 0000.0001) // =======================================================
(PID.TID 0000.0001) // Begin MONITOR dynamic field statistics
(PID.TID 0000.0001) // =======================================================
(PID.TID 0000.0001) %MON time_tsnumber                =                    12
(PID.TID 0000.0001) %MON time_secondsf                =   1.4400000000000E+04
(PID.TID 0000.0001) %MON dynstat_eta_max              =   4.0811724117740E-04
(PID.TID 0000.0001) %MON dynstat_eta_min              =  -4.0738750301917E-04
(PID.TID 0000.0001) %MON dynstat_eta_mean             =  -1.9714934751391E-18
(PID.TID 0000.0001) %MON dynstat_eta_sd               =   3.7359233537676E-04
(PID.TID 0000.0001) %MON dynstat_eta_del2             =   3.7884442274297E-06
(PID.TID 0000.0001) %MON dynstat_uvel_max             =   1.2509615120774E-02
(PID.TID 0000.0001) %MON dynstat_uvel_min             =  -1.2514461435644E-02
(PID.TID 0000.0001) %MON dynstat_uvel_mean            =  -9.1459040322358E-07
(PID.TID 0000.0001) %MON dynstat_uvel_sd              =   2.5306282224146E-03
(PID.TID 0000.0001) %MON dynstat_uvel_del2            =   9.1311076245072E-05
(PID.TID 0000.0001) %MON dynstat_vvel_max             =   2.2117020370531E-02
(PID.TID 0000.0001) %MON dynstat_vvel_min             =  -2.2114272581347E-02
(PID.TID 0000.0001) %MON dynstat_vvel_mean            =   1.2623322416141E-10
(PID.TID 0000.0001) %MON dynstat_vvel_sd              =   4.6015908572778E-03
(PID.TID 0000.0001) %MON dynstat_vvel_del2            =   1.7119063773315E-04
(PID.TID 0000.0001) %MON dynstat_wvel_max             =   4.0794374717684E-04
(PID.TID 0000.0001) %MON dynstat_wvel_min             =  -4.0894345835393E-04
(PID.TID 0000.0001) %MON dynstat_wvel_mean            =   3.3499229831722E-21
(PID.TID 0000.0001) %MON dynstat_wvel_sd              =   1.2434911675415E-04
(PID.TID 0000.0001) %MON dynstat_wvel_del2            =   1.0882703321477E-05
(PID.TID 0000.0001) %MON dynstat_theta_max            =   1.7020391872709E+01
(PID.TID 0000.0001) %MON dynstat_theta_min            =   1.6979608188987E+01
(PID.TID 0000.0001) %MON dynstat_theta_mean           =   1.6999999916894E+01
(PID.TID 0000.0001) %MON dynstat_theta_sd             =   1.8684263912915E-02
(PID.TID 0000.0001) %MON dynstat_theta_del2           =   1.9378230157056E-04
(PID.TID 0000.0001) %MON dynstat_salt_max             =   1.7020387109310E+01
(PID.TID 0000.0001) %MON dynstat_salt_min             =   1.6979612982854E+01
(PID.TID 0000.0001) %MON dynstat_salt_mean            =   1.7000000005831E+01
(PID.TID 0000.0001) %MON dynstat_salt_sd              =   1.8685276041968E-02
(PID.TID 0000.0001) %MON dynstat_salt_del2            =   1.8869620213741E-04
(PID.TID 0000.0001) %MON dynstat_sst_max              =   1.7020391872709E+01
(PID.TID 0000.0001) %MON dynstat_sst_min              =   1.6979608191089E+01
(PID.TID 0000.0001) %MON dynstat_sst_mean             =   1.7000213392712E+01
(PID.TID 0000.0001) %MON dynstat_sst_sd               =   1.8683896637589E-02
(PID.TID 0000.0001) %MON dynstat_sst_del2             =   1.9810093555269E-04
(PID.TID 0000.0001) %MON dynstat_sss_max              =   1.7020387109310E+01
(PID.TID 0000.0001) %MON dynstat_sss_min              =   1.6979612982854E+01
(PID.TID 0000.0001) %MON dynstat_sss_mean             =   1.7000000006266E+01
(PID.TID 0000.0001) %MON dynstat_sss_sd               =   1.8685225138955E-02
(PID.TID 0000.0001) %MON dynstat_sss_del2             =   1.8894275921085E-04
(PID.TID 0000.0001) %MON extforcing_qnet_max          =   0.0000000000000E+00
(PID.TID 0000.0001) %MON extforcing_qnet_min          =   0.0000000000000E+00
(PID.TID 0000.0001) %MON extforcing_qnet_mean         =   0.0000000000000E+00
(PID.TID 0000.0001) %MON extforcing_qnet_sd           =   0.0000000000000E+00
(PID.TID 0000.0001) %MON extforcing_qnet_del2         =   0.0000000000000E+00
(PID.TID 0000.0001) %MON extforcing_qsw_max           =   0.0000000000000E+00
(PID.TID 0000.0001) %MON extforcing_qsw_min           =   0.0000000000000E+00
(PID.TID 0000.0001) %MON extforcing_qsw_mean          =   0.0000000000000E+00
(PID.TID 0000.0001) %MON extforcing_qsw_sd            =   0.0000000000000E+00
(PID.TID 0000.0001) %MON extforcing_qsw_del2          =   0.0000000000000E+00
(PID.TID 0000.0001) %MON extforcing_empmr_max         =   0.0000000000000E+00
(PID.TID 0000.0001) %MON extforcing_empmr_min         =   0.0000000000000E+00
(PID.TID 0000.0001) %MON extforcing_empmr_mean        =   0.0000000000000E+00
(PID.TID 0000.0001) %MON extforcing_empmr_sd          =   0.0000000000000E+00
(PID.TID 0000.0001) %MON extforcing_empmr_del2        =   0.0000000000000E+00
(PID.TID 0000.0001) %MON extforcing_fu_max            =   0.0000000000000E+00
(PID.TID 0000.0001) %MON extforcing_fu_min            =   0.0000000000000E+00
(PID.TID 0000.0001) %MON extforcing_fu_mean           =   0.0000000000000E+00
(PID.TID 0000.0001) %MON extforcing_fu_sd             =   0.0000000000000E+00
(PID.TID 0000.0001) %MON extforcing_fu_del2           =   0.0000000000000E+00
(PID.TID 0000.0001) %MON extforcing_fv_max            =   0.0000000000000E+00
(PID.TID 0000.0001) %MON extforcing_fv_min            =   0.0000000000000E+00
(PID.TID 0000.0001) %MON extforcing_fv_mean           =   0.0000000000000E+00
(PID.TID 0000.0001) %MON extforcing_fv_sd             =   0.0000000000000E+00
(PID.TID 0000.0001) %MON extforcing_fv_del2           =   0.0000000000000E+00
(PID.TID 0000.0001) %MON advcfl_uvel_max              =   1.5017353722773E-02
(PID.TID 0000.0001) %MON advcfl_vvel_max              =   2.6540424444637E-02
(PID.TID 0000.0001) %MON advcfl_wvel_max              =   9.8146430004942E-02
(PID.TID 0000.0001) %MON advcfl_W_hf_max              =   9.8146430004942E-02
(PID.TID 0000.0001) %MON pe_b_mean                    =   3.4229844906067E-09
(PID.TID 0000.0001) %MON ke_max                       =   3.1694116823885E-04
(PID.TID 0000.0001) %MON ke_mean                      =   1.3365866458814E-05
(PID.TID 0000.0001) %MON ke_vol                       =   2.5000000000000E+11
(PID.TID 0000.0001) %MON vort_r_min                   =  -4.2594947605522E-06
(PID.TID 0000.0001) %MON vort_r_max                   =   4.4327728602449E-06
(PID.TID 0000.0001) %MON vort_a_mean                  =   7.2900000000000E-05
(PID.TID 0000.0001) %MON vort_a_sd                    =   1.0076555009470E-06
(PID.TID 0000.0001) %MON vort_p_mean                  =   7.7363265306122E-05
(PID.TID 0000.0001) %MON vort_p_sd                    =   3.0939827698516E-05
(PID.TID 0000.0001) %MON surfExpan_theta_mean         =  -1.7325995552079E-13
(PID.TID 0000.0001) %MON surfExpan_salt_mean          =   3.9630338155398E-17
(PID.TID 0000.0001) // =======================================================
(PID.TID 0000.0001) // End MONITOR dynamic field statistics
(PID.TID 0000.0001) // =======================================================
 Computing Diagnostic # 133  momKE        Counter:       6   Parms: SM      MR      
 Computing Diagnostic # 134  momHDiv      Counter:       6   Parms: SM      MR      
 Computing Diagnostic # 135  momVort3     Counter:       6   Parms: SZ      MR      
 Computing Diagnostic # 136  Strain       Counter:       6   Parms: SZ      MR      
 Computing Diagnostic # 137  Tension      Counter:       6   Parms: SM      MR      
 Computing Diagnostic # 109  VISCAHD      Counter:       6   Parms: SM      MR      
 Computing Diagnostic # 110  VISCA4D      Counter:       6   Parms: SM      MR      
 Computing Diagnostic # 107  VISCAHZ      Counter:       6   Parms: SZ      MR      
 Computing Diagnostic # 108  VISCA4Z      Counter:       6   Parms: SZ      MR      
 Computing Diagnostic # 115  VAHDMAX      Counter:       6   Parms: SM      MR      
 Computing Diagnostic # 116  VA4DMAX      Counter:       6   Parms: SM      MR      
 Computing Diagnostic # 113  VAHZMAX      Counter:       6   Parms: SZ      MR      
 Computing Diagnostic # 114  VA4ZMAX      Counter:       6   Parms: SZ      MR      
 Computing Diagnostic # 119  VAHDMIN      Counter:       6   Parms: SM      MR      
 Computing Diagnostic # 120  VA4DMIN      Counter:       6   Parms: SM      MR      
 Computing Diagnostic # 117  VAHZMIN      Counter:       6   Parms: SZ      MR      
 Computing Diagnostic # 118  VA4ZMIN      Counter:       6   Parms: SZ      MR      
 Computing Diagnostic # 123  VAHDLTH      Counter:       6   Parms: SM      MR      
 Computing Diagnostic # 124  VA4DLTH      Counter:       6   Parms: SM      MR      
 Computing Diagnostic # 121  VAHZLTH      Counter:       6   Parms: SZ      MR      
 Computing Diagnostic # 122  VA4ZLTH      Counter:       6   Parms: SZ      MR      
 Computing Diagnostic # 127  VAHDLTHD     Counter:       6   Parms: SM      MR      
 Computing Diagnostic # 128  VA4DLTHD     Counter:       6   Parms: SM      MR      
 Computing Diagnostic # 125  VAHZLTHD     Counter:       6   Parms: SZ      MR      
 Computing Diagnostic # 126  VA4ZLTHD     Counter:       6   Parms: SZ      MR      
 Computing Diagnostic # 131  VAHDSMAG     Counter:       6   Parms: SM      MR      
 Computing Diagnostic # 132  VA4DSMAG     Counter:       6   Parms: SM      MR      
 Computing Diagnostic # 129  VAHZSMAG     Counter:       6   Parms: SZ      MR      
 Computing Diagnostic # 130  VA4ZSMAG     Counter:       6   Parms: SZ      MR      
(PID.TID 0000.0001) %CHECKPOINT        12 ckptA
(PID.TID 0000.0001)   Seconds in section "ALL                    [THE_MODEL_MAIN]":
(PID.TID 0000.0001)           User time:  17.0564078
(PID.TID 0000.0001)         System time:  0.800877996
(PID.TID 0000.0001)     Wall clock time:  18.1085281
(PID.TID 0000.0001)          No. starts: 1
(PID.TID 0000.0001)           No. stops: 1
(PID.TID 0000.0001)   Seconds in section "INITIALISE_FIXED       [THE_MODEL_MAIN]":
(PID.TID 0000.0001)           User time:  1.353794
(PID.TID 0000.0001)         System time:  0.0749889987
(PID.TID 0000.0001)     Wall clock time:  1.60633421
(PID.TID 0000.0001)          No. starts: 1
(PID.TID 0000.0001)           No. stops: 1
(PID.TID 0000.0001)   Seconds in section "THE_MAIN_LOOP          [THE_MODEL_MAIN]":
(PID.TID 0000.0001)           User time:  15.5216408
(PID.TID 0000.0001)         System time:  0.644902021
(PID.TID 0000.0001)     Wall clock time:  16.240922
(PID.TID 0000.0001)          No. starts: 1
(PID.TID 0000.0001)           No. stops: 1
(PID.TID 0000.0001)   Seconds in section "INITIALISE_VARIA    [THE_MAIN_LOOP]":
(PID.TID 0000.0001)           User time:  0.164975047
(PID.TID 0000.0001)         System time:  0.0539910048
(PID.TID 0000.0001)     Wall clock time:  0.279911995
(PID.TID 0000.0001)          No. starts: 1
(PID.TID 0000.0001)           No. stops: 1
(PID.TID 0000.0001)   Seconds in section "MAIN LOOP           [THE_MAIN_LOOP]":
(PID.TID 0000.0001)           User time:  15.1536968
(PID.TID 0000.0001)         System time:  0.55291602
(PID.TID 0000.0001)     Wall clock time:  15.7199202
(PID.TID 0000.0001)          No. starts: 1
(PID.TID 0000.0001)           No. stops: 1
(PID.TID 0000.0001)   Seconds in section "FORWARD_STEP        [THE_MAIN_LOOP]":
(PID.TID 0000.0001)           User time:  15.1536968
(PID.TID 0000.0001)         System time:  0.55291602
(PID.TID 0000.0001)     Wall clock time:  15.7194619
(PID.TID 0000.0001)          No. starts: 12
(PID.TID 0000.0001)           No. stops: 12
(PID.TID 0000.0001)   Seconds in section "DO_STATEVARS_DIAGS  [FORWARD_STEP]":
(PID.TID 0000.0001)           User time:  0.
(PID.TID 0000.0001)         System time:  0.
(PID.TID 0000.0001)     Wall clock time:  0.00192165375
(PID.TID 0000.0001)          No. starts: 36
(PID.TID 0000.0001)           No. stops: 36
(PID.TID 0000.0001)   Seconds in section "LOAD_FIELDS_DRIVER  [FORWARD_STEP]":
(PID.TID 0000.0001)           User time:  0.
(PID.TID 0000.0001)         System time:  0.
(PID.TID 0000.0001)     Wall clock time:  0.00128173828
(PID.TID 0000.0001)          No. starts: 12
(PID.TID 0000.0001)           No. stops: 12
(PID.TID 0000.0001)   Seconds in section "EXTERNAL_FLDS_LOAD [LOAD_FLDS_DRIVER]":
(PID.TID 0000.0001)           User time:  0.
(PID.TID 0000.0001)         System time:  0.
(PID.TID 0000.0001)     Wall clock time:  0.000430822372
(PID.TID 0000.0001)          No. starts: 12
(PID.TID 0000.0001)           No. stops: 12
(PID.TID 0000.0001)   Seconds in section "DO_ATMOSPHERIC_PHYS [FORWARD_STEP]":
(PID.TID 0000.0001)           User time:  0.
(PID.TID 0000.0001)         System time:  0.
(PID.TID 0000.0001)     Wall clock time:  0.000419378281
(PID.TID 0000.0001)          No. starts: 12
(PID.TID 0000.0001)           No. stops: 12
(PID.TID 0000.0001)   Seconds in section "DO_OCEANIC_PHYS     [FORWARD_STEP]":
(PID.TID 0000.0001)           User time:  0.219967723
(PID.TID 0000.0001)         System time:  0.00100000203
(PID.TID 0000.0001)     Wall clock time:  0.219614744
(PID.TID 0000.0001)          No. starts: 12
(PID.TID 0000.0001)           No. stops: 12
(PID.TID 0000.0001)   Seconds in section "DYNAMICS            [FORWARD_STEP]":
(PID.TID 0000.0001)           User time:  6.12806618
(PID.TID 0000.0001)         System time:  0.0109979808
(PID.TID 0000.0001)     Wall clock time:  6.147928
(PID.TID 0000.0001)          No. starts: 12
(PID.TID 0000.0001)           No. stops: 12
(PID.TID 0000.0001)   Seconds in section "SOLVE_FOR_PRESSURE  [FORWARD_STEP]":
(PID.TID 0000.0001)           User time:  0.451934099
(PID.TID 0000.0001)         System time:  0.000999987125
(PID.TID 0000.0001)     Wall clock time:  0.451126099
(PID.TID 0000.0001)          No. starts: 12
(PID.TID 0000.0001)           No. stops: 12
(PID.TID 0000.0001)   Seconds in section "MOM_CORRECTION_STEP [FORWARD_STEP]":
(PID.TID 0000.0001)           User time:  0.134977818
(PID.TID 0000.0001)         System time:  0.
(PID.TID 0000.0001)     Wall clock time:  0.134972334
(PID.TID 0000.0001)          No. starts: 12
(PID.TID 0000.0001)           No. stops: 12
(PID.TID 0000.0001)   Seconds in section "BLOCKING_EXCHANGES  [FORWARD_STEP]":
(PID.TID 0000.0001)           User time:  0.0949902534
(PID.TID 0000.0001)         System time:  0.00100000203
(PID.TID 0000.0001)     Wall clock time:  0.0942759514
(PID.TID 0000.0001)          No. starts: 24
(PID.TID 0000.0001)           No. stops: 24
(PID.TID 0000.0001)   Seconds in section "THERMODYNAMICS      [FORWARD_STEP]":
(PID.TID 0000.0001)           User time:  4.91225648
(PID.TID 0000.0001)         System time:  0.00799900293
(PID.TID 0000.0001)     Wall clock time:  4.92305779
(PID.TID 0000.0001)          No. starts: 12
(PID.TID 0000.0001)           No. stops: 12
(PID.TID 0000.0001)   Seconds in section "TRC_CORRECTION_STEP [FORWARD_STEP]":
(PID.TID 0000.0001)           User time:  0.0439891815
(PID.TID 0000.0001)         System time:  0.
(PID.TID 0000.0001)     Wall clock time:  0.0453836918
(PID.TID 0000.0001)          No. starts: 12
(PID.TID 0000.0001)           No. stops: 12
(PID.TID 0000.0001)   Seconds in section "DO_STATEVARS_TAVE   [FORWARD_STEP]":
(PID.TID 0000.0001)           User time:  0.
(PID.TID 0000.0001)         System time:  0.000999987125
(PID.TID 0000.0001)     Wall clock time:  0.000453472137
(PID.TID 0000.0001)          No. starts: 12
(PID.TID 0000.0001)           No. stops: 12
(PID.TID 0000.0001)   Seconds in section "MONITOR             [FORWARD_STEP]":
(PID.TID 0000.0001)           User time:  1.20081878
(PID.TID 0000.0001)         System time:  0.00199899077
(PID.TID 0000.0001)     Wall clock time:  1.20279145
(PID.TID 0000.0001)          No. starts: 12
(PID.TID 0000.0001)           No. stops: 12
(PID.TID 0000.0001)   Seconds in section "DO_THE_MODEL_IO     [FORWARD_STEP]":
(PID.TID 0000.0001)           User time:  1.96070051
(PID.TID 0000.0001)         System time:  0.526920021
(PID.TID 0000.0001)     Wall clock time:  2.48795414
(PID.TID 0000.0001)          No. starts: 12
(PID.TID 0000.0001)           No. stops: 12
(PID.TID 0000.0001)   Seconds in section "DO_WRITE_PICKUP     [FORWARD_STEP]":
(PID.TID 0000.0001)           User time:  0.
(PID.TID 0000.0001)         System time:  0.
(PID.TID 0000.0001)     Wall clock time:  0.000440359116
(PID.TID 0000.0001)          No. starts: 12
(PID.TID 0000.0001)           No. stops: 12
(PID.TID 0000.0001)   Seconds in section "DO_WRITE_PICKUP        [THE_MODEL_MAIN]":
(PID.TID 0000.0001)           User time:  0.180973053
(PID.TID 0000.0001)         System time:  0.0809869766
(PID.TID 0000.0001)     Wall clock time:  0.261107922
(PID.TID 0000.0001)          No. starts: 1
(PID.TID 0000.0001)           No. stops: 1
(PID.TID 0000.0001) // ======================================================
(PID.TID 0000.0001) // Tile <-> Tile communication statistics
(PID.TID 0000.0001) // ======================================================
(PID.TID 0000.0001) // o Tile number: 000001
(PID.TID 0000.0001) //         No. X exchanges =              0
(PID.TID 0000.0001) //            Max. X spins =              0
(PID.TID 0000.0001) //            Min. X spins =     1000000000
(PID.TID 0000.0001) //          Total. X spins =              0
(PID.TID 0000.0001) //            Avg. X spins =       0.00E+00
(PID.TID 0000.0001) //         No. Y exchanges =              0
(PID.TID 0000.0001) //            Max. Y spins =              0
(PID.TID 0000.0001) //            Min. Y spins =     1000000000
(PID.TID 0000.0001) //          Total. Y spins =              0
(PID.TID 0000.0001) //            Avg. Y spins =       0.00E+00
(PID.TID 0000.0001) // o Thread number: 000001
(PID.TID 0000.0001) //            No. barriers =          18144
(PID.TID 0000.0001) //      Max. barrier spins =              1
(PID.TID 0000.0001) //      Min. barrier spins =              1
(PID.TID 0000.0001) //     Total barrier spins =          18144
(PID.TID 0000.0001) //      Avg. barrier spins =       1.00E+00
