(PID.TID 0000.0001) 
(PID.TID 0000.0001) // ======================================================
(PID.TID 0000.0001) //                      MITgcm UV
(PID.TID 0000.0001) //                      =========
(PID.TID 0000.0001) // ======================================================
(PID.TID 0000.0001) // execution environment starting up...
(PID.TID 0000.0001) 
(PID.TID 0000.0001) // MITgcmUV version:  checkpoint58q_post
(PID.TID 0000.0001) // Build user:        heimbach
(PID.TID 0000.0001) // Build host:        faulks
(PID.TID 0000.0001) // Build date:        Wed Nov  8 16:54:52 EST 2006
(PID.TID 0000.0001) 
(PID.TID 0000.0001) // =======================================================
(PID.TID 0000.0001) // Execution Environment parameter file "eedata"
(PID.TID 0000.0001) // =======================================================
(PID.TID 0000.0001) ># Example "eedata" file
(PID.TID 0000.0001) ># Lines beginning "#" are comments
(PID.TID 0000.0001) ># nTx - No. threads per process in X
(PID.TID 0000.0001) ># nTy - No. threads per process in Y
(PID.TID 0000.0001) > &EEPARMS
(PID.TID 0000.0001) > nTx=1,
(PID.TID 0000.0001) > nTy=1,
(PID.TID 0000.0001) > /
(PID.TID 0000.0001) ># Note: Some systems use & as the
(PID.TID 0000.0001) ># namelist terminator. Other systems
(PID.TID 0000.0001) ># use a / character (as shown here).
(PID.TID 0000.0001) 
(PID.TID 0000.0001) // =======================================================
(PID.TID 0000.0001) // Computational Grid Specification ( see files "SIZE.h" )
(PID.TID 0000.0001) //                                  ( and "eedata"       )
(PID.TID 0000.0001) // =======================================================
(PID.TID 0000.0001)      nPx =    1 ; /* No. processes in X */
(PID.TID 0000.0001)      nPy =    1 ; /* No. processes in Y */
(PID.TID 0000.0001)      nSx =    1 ; /* No. tiles in X per process */
(PID.TID 0000.0001)      nSy =    1 ; /* No. tiles in Y per process */
(PID.TID 0000.0001)      sNx =   90 ; /* Tile size in X */
(PID.TID 0000.0001)      sNy =   40 ; /* Tile size in Y */
(PID.TID 0000.0001)      OLx =    3 ; /* Tile overlap distance in X */
(PID.TID 0000.0001)      OLy =    3 ; /* Tile overlap distance in Y */
(PID.TID 0000.0001)      nTx =    1 ; /* No. threads in X per process */
(PID.TID 0000.0001)      nTy =    1 ; /* No. threads in Y per process */
(PID.TID 0000.0001)       Nr =   15 ; /* No. levels in the vertical   */
(PID.TID 0000.0001)       nX =   90 ; /* Total domain size in X ( = nPx*nSx*sNx ) */
(PID.TID 0000.0001)       nY =   40 ; /* Total domain size in Y ( = nPy*nSy*sNy ) */
(PID.TID 0000.0001)   nTiles =    1 ; /* Total no. tiles per process ( = nSx*nSy ) */
(PID.TID 0000.0001)   nProcs =    1 ; /* Total no. processes ( = nPx*nPy ) */
(PID.TID 0000.0001) nThreads =    1 ; /* Total no. threads per process ( = nTx*nTy ) */
(PID.TID 0000.0001) usingMPI =    F ; /* Flag used to control whether MPI is in use */
(PID.TID 0000.0001)                   /*  note: To execute a program with MPI calls */
(PID.TID 0000.0001)                   /*  it must be launched appropriately e.g     */
(PID.TID 0000.0001)                   /*  "mpirun -np 64 ......"                    */
(PID.TID 0000.0001) useCoupler=   F ; /* Flag used to control communications with */
(PID.TID 0000.0001)                   /*  other model components, through a coupler */
(PID.TID 0000.0001) 
(PID.TID 0000.0001) // ======================================================
(PID.TID 0000.0001) // Mapping of tiles to threads
(PID.TID 0000.0001) // ======================================================
(PID.TID 0000.0001) // -o- Thread   1, tiles (   1:   1,   1:   1)
(PID.TID 0000.0001) 
(PID.TID 0000.0001) // ======================================================
(PID.TID 0000.0001) // Tile <-> Tile connectvity table
(PID.TID 0000.0001) // ======================================================
(PID.TID 0000.0001) // Tile number: 000001 (process no. = 000001)
(PID.TID 0000.0001) //        WEST: Tile = 000001, Process = 000001, Comm = put
(PID.TID 0000.0001) //                bi = 000001, bj = 000001
(PID.TID 0000.0001) //        EAST: Tile = 000001, Process = 000001, Comm = put
(PID.TID 0000.0001) //                bi = 000001, bj = 000001
(PID.TID 0000.0001) //       SOUTH: Tile = 000001, Process = 000001, Comm = put
(PID.TID 0000.0001) //                bi = 000001, bj = 000001
(PID.TID 0000.0001) //       NORTH: Tile = 000001, Process = 000001, Comm = put
(PID.TID 0000.0001) //                bi = 000001, bj = 000001
(PID.TID 0000.0001) 
(PID.TID 0000.0001) // =======================================================
(PID.TID 0000.0001) // Model parameter file "data"
(PID.TID 0000.0001) // =======================================================
(PID.TID 0000.0001) ># ====================
(PID.TID 0000.0001) ># | Model parameters |
(PID.TID 0000.0001) ># ====================
(PID.TID 0000.0001) >#
(PID.TID 0000.0001) ># Continuous equation parameters
(PID.TID 0000.0001) > &PARM01
(PID.TID 0000.0001) > tRef = 15*20.,
(PID.TID 0000.0001) > sRef = 15*35.,
(PID.TID 0000.0001) > viscAr=1.E-3,
(PID.TID 0000.0001) > viscAh=5.E5,
(PID.TID 0000.0001) > diffKhT=0.0,
(PID.TID 0000.0001) > diffKrT=3.E-5,
(PID.TID 0000.0001) > diffKhS=0.0,
(PID.TID 0000.0001) > diffKrS=3.E-5,
(PID.TID 0000.0001) > rhonil=1035.,
(PID.TID 0000.0001) > rotationPeriod=86400.,
(PID.TID 0000.0001) > gravity=9.81,
(PID.TID 0000.0001) > eosType = 'POLY3',
(PID.TID 0000.0001) > ivdc_kappa=100.,
(PID.TID 0000.0001) > implicitDiffusion=.TRUE.,
(PID.TID 0000.0001) > allowFreezing=.TRUE.,
(PID.TID 0000.0001) > useRealFreshWaterFlux=.TRUE.,
(PID.TID 0000.0001) > useCDscheme=.TRUE.,
(PID.TID 0000.0001) ># turn on looped cells
(PID.TID 0000.0001) > hFacMin=.05,
(PID.TID 0000.0001) > hFacMindr=50.,
(PID.TID 0000.0001) ># set precision of data files
(PID.TID 0000.0001) > readBinaryPrec=32,
(PID.TID 0000.0001) > &
(PID.TID 0000.0001) >
(PID.TID 0000.0001) ># Elliptic solver parameters
(PID.TID 0000.0001) > &PARM02
(PID.TID 0000.0001) > cg2dMaxIters=500,
(PID.TID 0000.0001) > cg2dTargetResidual=1.E-13,
(PID.TID 0000.0001) > &
(PID.TID 0000.0001) >
(PID.TID 0000.0001) ># Time stepping parameters
(PID.TID 0000.0001) > &PARM03
(PID.TID 0000.0001) > nIter0 =      0,
(PID.TID 0000.0001) > nTimeSteps = 120,
(PID.TID 0000.0001) ># 100 years of integration will yield a reasonable flow field
(PID.TID 0000.0001) ># startTime  =          0.,
(PID.TID 0000.0001) ># endTime    = 3110400000.,
(PID.TID 0000.0001) > deltaTmom = 1200.0,
(PID.TID 0000.0001) > tauCD =     321428.,
(PID.TID 0000.0001) > deltaTtracer= 43200.0,
(PID.TID 0000.0001) > deltaTClock = 43200.0,
(PID.TID 0000.0001) ># if you are using a version later than checkpoint45d on the main branch
(PID.TID 0000.0001) ># you can uncomment the following line and increase the time step
(PID.TID 0000.0001) ># deltaTtracer and deltaTClock to 172800.0 as well to speed up the
(PID.TID 0000.0001) ># asynchronous time stepping
(PID.TID 0000.0001) ># deltaTfreesurf = 172800.0,
(PID.TID 0000.0001) > abEps = 0.1,
(PID.TID 0000.0001) > pChkptFreq= 311040000.,
(PID.TID 0000.0001) > dumpFreq=   311040000.,
(PID.TID 0000.0001) > dumpFreq=   864000.,
(PID.TID 0000.0001) > adjDumpFreq= 432000.,
(PID.TID 0000.0001) > adjMonitorFreq=1.,
(PID.TID 0000.0001) ># taveFreq=   311040000.,
(PID.TID 0000.0001) ># taveFreq=   864000.,
(PID.TID 0000.0001) >#monitorFreq=31104000.,
(PID.TID 0000.0001) > monitorFreq=1.,
(PID.TID 0000.0001) ># 2 months restoring timescale for temperature
(PID.TID 0000.0001) > tauThetaClimRelax =  5184000.0,
(PID.TID 0000.0001) ># 6 months restoring timescale for salinity
(PID.TID 0000.0001) > tauSaltClimRelax = 15552000.0,
(PID.TID 0000.0001) > periodicExternalForcing=.TRUE.,
(PID.TID 0000.0001) > externForcingPeriod=2592000.,
(PID.TID 0000.0001) > externForcingCycle=31104000.,
(PID.TID 0000.0001) > &
(PID.TID 0000.0001) >
(PID.TID 0000.0001) ># Gridding parameters
(PID.TID 0000.0001) > &PARM04
(PID.TID 0000.0001) > usingCartesianGrid=.FALSE.,
(PID.TID 0000.0001) > usingSphericalPolarGrid=.TRUE.,
(PID.TID 0000.0001) > delR= 50., 70., 100., 140., 190.,
(PID.TID 0000.0001) >       240., 290., 340., 390., 440.,
(PID.TID 0000.0001) >       490., 540., 590., 640., 690.,
(PID.TID 0000.0001) > phiMin=-80.,
(PID.TID 0000.0001) > dySpacing=4.,
(PID.TID 0000.0001) > dxSpacing=4.,
(PID.TID 0000.0001) > &
(PID.TID 0000.0001) >
(PID.TID 0000.0001) ># Input datasets
(PID.TID 0000.0001) > &PARM05
(PID.TID 0000.0001) > bathyFile=      'bathymetry.bin',
(PID.TID 0000.0001) > hydrogThetaFile='lev_t.bin',
(PID.TID 0000.0001) > hydrogSaltFile= 'lev_s.bin',
(PID.TID 0000.0001) > zonalWindFile=  'trenberth_taux.bin',
(PID.TID 0000.0001) > meridWindFile=  'trenberth_tauy.bin',
(PID.TID 0000.0001) > thetaClimFile=  'lev_sst.bin',
(PID.TID 0000.0001) > saltClimFile=   'lev_sss.bin',
(PID.TID 0000.0001) > surfQFile=      'ncep_qnet.bin',
(PID.TID 0000.0001) ># fresh water flux is turned off, uncomment next line to turn on
(PID.TID 0000.0001) ># (not recommened together with surface salinity restoring)
(PID.TID 0000.0001) ># EmPmRFile=      'ncep_emp.bin',
(PID.TID 0000.0001) > &
(PID.TID 0000.0001) 
(PID.TID 0000.0001) S/R INI_PARMS ; starts to read PARM01
(PID.TID 0000.0001) S/R INI_PARMS ; read PARM01 : OK
(PID.TID 0000.0001) S/R INI_PARMS: No request for barotropic solver
(PID.TID 0000.0001) S/R INI_PARMS: => Use implicitFreeSurface as default
(PID.TID 0000.0001) S/R INI_PARMS ; starts to read PARM02
(PID.TID 0000.0001) S/R INI_PARMS ; read PARM02 : OK
(PID.TID 0000.0001) S/R INI_PARMS ; starts to read PARM03
(PID.TID 0000.0001) S/R INI_PARMS ; read PARM03 : OK
(PID.TID 0000.0001) S/R INI_PARMS ; starts to read PARM04
(PID.TID 0000.0001) S/R INI_PARMS ; read PARM04 : OK
(PID.TID 0000.0001) S/R INI_PARMS ; starts to read PARM05
(PID.TID 0000.0001) S/R INI_PARMS ; read PARM05 : OK
(PID.TID 0000.0001)  PACKAGES_BOOT: opening data.pkg
(PID.TID 0000.0001)  OPEN_COPY_DATA_FILE: opening file data.pkg
(PID.TID 0000.0001) // =======================================================
(PID.TID 0000.0001) // Parameter file "data.pkg"
(PID.TID 0000.0001) // =======================================================
(PID.TID 0000.0001) >#
(PID.TID 0000.0001) ># ********
(PID.TID 0000.0001) ># Packages
(PID.TID 0000.0001) ># ********
(PID.TID 0000.0001) > &PACKAGES
(PID.TID 0000.0001) > useGMRedi    = .TRUE.,
(PID.TID 0000.0001) > useKPP       = .FALSE.,
(PID.TID 0000.0001) > useGrdchk    = .TRUE.,
(PID.TID 0000.0001) > useMNC       = .TRUE.,
(PID.TID 0000.0001) > &
(PID.TID 0000.0001) 
(PID.TID 0000.0001)  PACKAGES_BOOT: finished reading data.pkg
(PID.TID 0000.0001)  MNC_READPARMS: opening file 'data.mnc'
(PID.TID 0000.0001)  OPEN_COPY_DATA_FILE: opening file data.mnc
(PID.TID 0000.0001) // =======================================================
(PID.TID 0000.0001) // Parameter file "data.mnc"
(PID.TID 0000.0001) // =======================================================
(PID.TID 0000.0001) ># Example "data.mnc" file
(PID.TID 0000.0001) ># Lines beginning "#" are comments
(PID.TID 0000.0001) > &MNC_01
(PID.TID 0000.0001) ># mnc_echo_gvtypes=.FALSE.,
(PID.TID 0000.0001) ># mnc_use_indir=.FALSE.,
(PID.TID 0000.0001) > mnc_use_outdir=.TRUE.,
(PID.TID 0000.0001) > mnc_outdir_str='mnc_test_',
(PID.TID 0000.0001) > mnc_outdir_date=.TRUE.,
(PID.TID 0000.0001) > monitor_mnc=.FALSE.,
(PID.TID 0000.0001) >#timeave_mnc=.FALSE.,
(PID.TID 0000.0001) >#snapshot_mnc=.FALSE.,
(PID.TID 0000.0001) >#autodiff_mnc=.FALSE.,
(PID.TID 0000.0001) > pickup_write_mnc=.FALSE.,
(PID.TID 0000.0001) > pickup_read_mnc=.FALSE.,
(PID.TID 0000.0001) > &
(PID.TID 0000.0001) ># Note: Some systems use & as the
(PID.TID 0000.0001) ># namelist terminator. Other systems
(PID.TID 0000.0001) ># use a / character (as shown here).
(PID.TID 0000.0001) 
(PID.TID 0000.0001)  MNC_READPARMS: finished reading data.mnc
(PID.TID 0000.0001)  GM_READPARMS: opening data.gmredi
(PID.TID 0000.0001)  OPEN_COPY_DATA_FILE: opening file data.gmredi
(PID.TID 0000.0001) // =======================================================
(PID.TID 0000.0001) // Parameter file "data.gmredi"
(PID.TID 0000.0001) // =======================================================
(PID.TID 0000.0001) ># GM+Redi package parameters:
(PID.TID 0000.0001) >#     GM_Small_Number  :: epsilon used in computing the slope
(PID.TID 0000.0001) >#     GM_slopeSqCutoff :: slope^2 cut-off value
(PID.TID 0000.0001) >
(PID.TID 0000.0001) >#-from MOM :
(PID.TID 0000.0001) ># GM_background_K: 	G & Mc.W  diffusion coefficient
(PID.TID 0000.0001) ># GM_maxSlope    :	max slope of isopycnals
(PID.TID 0000.0001) ># GM_Scrit       :	transition for scaling diffusion coefficient
(PID.TID 0000.0001) ># GM_Sd          :	half width scaling for diffusion coefficient
(PID.TID 0000.0001) ># GM_taper_scheme:	slope clipping or one of the tapering schemes
(PID.TID 0000.0001) ># GM_Kmin_horiz  :	horizontal diffusion minimum value
(PID.TID 0000.0001) >
(PID.TID 0000.0001) >#-Option parameters (needs to "define" options in GMREDI_OPTIONS.h")
(PID.TID 0000.0001) ># GM_isopycK     :	isopycnal diffusion coefficient (default=GM_background_K)
(PID.TID 0000.0001) ># GM_AdvForm     :	turn on GM Advective form       (default=Skew flux form)
(PID.TID 0000.0001) >
(PID.TID 0000.0001) > &GM_PARM01
(PID.TID 0000.0001) >  GM_Small_Number  = 1.D-20,
(PID.TID 0000.0001) >  GM_slopeSqCutoff = 1.D+08,
(PID.TID 0000.0001) >  GM_AdvForm         = .TRUE.,
(PID.TID 0000.0001) >  GM_isopycK         = 1.1D+3,
(PID.TID 0000.0001) >  GM_background_K    = 0.9D+3,
(PID.TID 0000.0001) >  GM_taper_scheme    = 'dm95',
(PID.TID 0000.0001) >  GM_maxSlope        = 1.D-2,
(PID.TID 0000.0001) >  GM_Kmin_horiz      = 50.,
(PID.TID 0000.0001) >  GM_Scrit           = 4.D-3,
(PID.TID 0000.0001) >  GM_Sd              = 1.D-3,
(PID.TID 0000.0001) >#  GM_Visbeck_alpha   = 1.5D-2,
(PID.TID 0000.0001) >  GM_Visbeck_alpha   = 0.D0,
(PID.TID 0000.0001) >  GM_Visbeck_length  = 2.D+5,
(PID.TID 0000.0001) >  GM_Visbeck_depth   = 1.D+3,
(PID.TID 0000.0001) >  GM_Visbeck_maxval_K= 2.5D+3,
(PID.TID 0000.0001) > &
(PID.TID 0000.0001) >
(PID.TID 0000.0001) >
(PID.TID 0000.0001) 
(PID.TID 0000.0001)  GM_READPARMS: finished reading data.gmredi
(PID.TID 0000.0001) OPTIM_READPARMS: opening data.optim
(PID.TID 0000.0001)  OPEN_COPY_DATA_FILE: opening file data.optim
(PID.TID 0000.0001) // =======================================================
(PID.TID 0000.0001) // Parameter file "data.optim"
(PID.TID 0000.0001) // =======================================================
(PID.TID 0000.0001) >#
(PID.TID 0000.0001) ># ********************************
(PID.TID 0000.0001) ># Off-line optimization parameters
(PID.TID 0000.0001) ># ********************************
(PID.TID 0000.0001) > &OPTIM
(PID.TID 0000.0001) > optimcycle=0,
(PID.TID 0000.0001) > &
(PID.TID 0000.0001) 
(PID.TID 0000.0001) OPTIM_READPARMS: finished reading data.optim
(PID.TID 0000.0001) CTRL_READPARMS: opening data.ctrl
(PID.TID 0000.0001)  OPEN_COPY_DATA_FILE: opening file data.ctrl
(PID.TID 0000.0001) // =======================================================
(PID.TID 0000.0001) // Parameter file "data.ctrl"
(PID.TID 0000.0001) // =======================================================
(PID.TID 0000.0001) >#
(PID.TID 0000.0001) >#
(PID.TID 0000.0001) ># *********************
(PID.TID 0000.0001) ># ECCO controlvariables
(PID.TID 0000.0001) ># *********************
(PID.TID 0000.0001) > &CTRL_NML
(PID.TID 0000.0001) > xx_theta_file      = 'xx_theta',
(PID.TID 0000.0001) > xx_salt_file       = 'xx_salt',
(PID.TID 0000.0001) > xx_tr1_file        = 'xx_tr1',
(PID.TID 0000.0001) > xx_hflux_file      = 'xx_hflux',
(PID.TID 0000.0001) > xx_sflux_file      = 'xx_sflux',
(PID.TID 0000.0001) > xx_tauu_file       = 'xx_tauu',
(PID.TID 0000.0001) > xx_tauv_file       = 'xx_tauv',
(PID.TID 0000.0001) > xx_diffkr_file     = 'xx_diffkr',
(PID.TID 0000.0001) > xx_kapgm_file      = 'xx_kapgm',
(PID.TID 0000.0001) > &
(PID.TID 0000.0001) >#
(PID.TID 0000.0001) ># *********************
(PID.TID 0000.0001) ># names for ctrl_pack/unpack
(PID.TID 0000.0001) ># *********************
(PID.TID 0000.0001) > &CTRL_PACKNAMES
(PID.TID 0000.0001) > ctrlname = 'ecco_ctrl',
(PID.TID 0000.0001) > costname = 'ecco_cost',
(PID.TID 0000.0001) > scalname = 'ecco_scal',
(PID.TID 0000.0001) > maskname = 'ecco_mask',
(PID.TID 0000.0001) > metaname = 'ecco_meta',
(PID.TID 0000.0001) > &
(PID.TID 0000.0001) >
(PID.TID 0000.0001) 
(PID.TID 0000.0001) CTRL_READPARMS: finished reading data.ctrl
(PID.TID 0000.0001) COST_READPARMS: opening data.cost
(PID.TID 0000.0001)  OPEN_COPY_DATA_FILE: opening file data.cost
(PID.TID 0000.0001) // =======================================================
(PID.TID 0000.0001) // Parameter file "data.cost"
(PID.TID 0000.0001) // =======================================================
(PID.TID 0000.0001) >#
(PID.TID 0000.0001) >#
(PID.TID 0000.0001) ># ******************
(PID.TID 0000.0001) ># ECCO cost function
(PID.TID 0000.0001) ># ******************
(PID.TID 0000.0001) > &COST_NML
(PID.TID 0000.0001) >#
(PID.TID 0000.0001) > mult_tracer  = 1.,
(PID.TID 0000.0001) > mult_test    = 1.,
(PID.TID 0000.0001) > mult_atl     = 1.,
(PID.TID 0000.0001) > &
(PID.TID 0000.0001) 
(PID.TID 0000.0001) COST_READPARMS: finished reading data.cost
(PID.TID 0000.0001) GRDCHK_READPARMS: opening data.grdchk
(PID.TID 0000.0001)  OPEN_COPY_DATA_FILE: opening file data.grdchk
(PID.TID 0000.0001) // =======================================================
(PID.TID 0000.0001) // Parameter file "data.grdchk"
(PID.TID 0000.0001) // =======================================================
(PID.TID 0000.0001) >
(PID.TID 0000.0001) ># *******************
(PID.TID 0000.0001) ># ECCO gradient check
(PID.TID 0000.0001) ># *******************
(PID.TID 0000.0001) > &GRDCHK_NML
(PID.TID 0000.0001) > grdchk_eps       = 1.d-2,
(PID.TID 0000.0001) > nbeg             = 1,
(PID.TID 0000.0001) > nstep            = 1,
(PID.TID 0000.0001) > nend             = 2,
(PID.TID 0000.0001) > grdchkvarindex   = 1,
(PID.TID 0000.0001) > &
(PID.TID 0000.0001) 
(PID.TID 0000.0001) GRDCHK_READPARMS: finished reading data.grdchk
(PID.TID 0000.0001) 
(PID.TID 0000.0001) // =======================================================
(PID.TID 0000.0001) // Gradient check configuration  >>> START <<<
(PID.TID 0000.0001) // =======================================================
(PID.TID 0000.0001) 
(PID.TID 0000.0001)   eps:                              0.100E-01
(PID.TID 0000.0001)   First location:                           1
(PID.TID 0000.0001)   Last location:                            2
(PID.TID 0000.0001)   Increment:                                1
(PID.TID 0000.0001) 
(PID.TID 0000.0001) // =======================================================
(PID.TID 0000.0001) // Gradient check configuration  >>> END <<<
(PID.TID 0000.0001) // =======================================================
(PID.TID 0000.0001) 
(PID.TID 0000.0001) SET_PARMS: done
(PID.TID 0000.0001) %MON XC_max                       =   3.5800000000000E+02
(PID.TID 0000.0001) %MON XC_min                       =   2.0000000000000E+00
(PID.TID 0000.0001) %MON XC_mean                      =   1.8000000000000E+02
(PID.TID 0000.0001) %MON XC_sd                        =   1.0391663325314E+02
(PID.TID 0000.0001) %MON XG_max                       =   3.5600000000000E+02
(PID.TID 0000.0001) %MON XG_min                       =   4.0000000000000E+00
(PID.TID 0000.0001) %MON XG_mean                      =   1.8000000000000E+02
(PID.TID 0000.0001) %MON XG_sd                        =   1.0276186062932E+02
(PID.TID 0000.0001) %MON DXC_max                      =   4.4443898815675E+05
(PID.TID 0000.0001) %MON DXC_min                      =   9.2460385861875E+04
(PID.TID 0000.0001) %MON DXC_mean                     =   3.1372497618153E+05
(PID.TID 0000.0001) %MON DXC_sd                       =   1.1216447457560E+05
(PID.TID 0000.0001) %MON DXF_max                      =   4.4443898815675E+05
(PID.TID 0000.0001) %MON DXF_min                      =   9.2460385861875E+04
(PID.TID 0000.0001) %MON DXF_mean                     =   3.1372497618153E+05
(PID.TID 0000.0001) %MON DXF_sd                       =   1.1216447457560E+05
(PID.TID 0000.0001) %MON DXG_max                      =   4.4470989340816E+05
(PID.TID 0000.0001) %MON DXG_min                      =   7.7223062580781E+04
(PID.TID 0000.0001) %MON DXG_mean                     =   3.1353386340260E+05
(PID.TID 0000.0001) %MON DXG_sd                       =   1.1256651772502E+05
(PID.TID 0000.0001) %MON DXV_max                      =   4.4470989340816E+05
(PID.TID 0000.0001) %MON DXV_min                      =   7.7223062580781E+04
(PID.TID 0000.0001) %MON DXV_mean                     =   3.1353386340260E+05
(PID.TID 0000.0001) %MON DXV_sd                       =   1.1256651772502E+05
(PID.TID 0000.0001) %MON YC_max                       =   7.8000000000000E+01
(PID.TID 0000.0001) %MON YC_min                       =  -7.8000000000000E+01
(PID.TID 0000.0001) %MON YC_mean                      =   0.0000000000000E+00
(PID.TID 0000.0001) %MON YC_sd                        =   4.6173585522461E+01
(PID.TID 0000.0001) %MON YG_max                       =   7.6000000000000E+01
(PID.TID 0000.0001) %MON YG_min                       =  -8.0000000000000E+01
(PID.TID 0000.0001) %MON YG_mean                      =  -2.0512820512821E+00
(PID.TID 0000.0001) %MON YG_sd                        =   4.6760682979564E+01
(PID.TID 0000.0001) %MON DYC_max                      =   4.4470989340816E+05
(PID.TID 0000.0001) %MON DYC_min                      =   4.4470989340816E+05
(PID.TID 0000.0001) %MON DYC_mean                     =   4.4470989340814E+05
(PID.TID 0000.0001) %MON DYC_sd                       =   1.9848812371492E-08
(PID.TID 0000.0001) %MON DYF_max                      =   4.4470989340816E+05
(PID.TID 0000.0001) %MON DYF_min                      =   4.4470989340816E+05
(PID.TID 0000.0001) %MON DYF_mean                     =   4.4470989340814E+05
(PID.TID 0000.0001) %MON DYF_sd                       =   1.9848812371492E-08
(PID.TID 0000.0001) %MON DYG_max                      =   4.4470989340816E+05
(PID.TID 0000.0001) %MON DYG_min                      =   4.4470989340816E+05
(PID.TID 0000.0001) %MON DYG_mean                     =   4.4470989340814E+05
(PID.TID 0000.0001) %MON DYG_sd                       =   1.9848812371492E-08
(PID.TID 0000.0001) %MON DYU_max                      =   4.4470989340816E+05
(PID.TID 0000.0001) %MON DYU_min                      =   4.4470989340816E+05
(PID.TID 0000.0001) %MON DYU_mean                     =   4.4470989340814E+05
(PID.TID 0000.0001) %MON DYU_sd                       =   1.9848812371492E-08
(PID.TID 0000.0001) %MON RA_max                       =   1.9760627980089E+11
(PID.TID 0000.0001) %MON RA_min                       =   4.1109698667290E+10
(PID.TID 0000.0001) %MON RA_mean                      =   1.3948826965197E+11
(PID.TID 0000.0001) %MON RA_sd                        =   4.9870522472902E+10
(PID.TID 0000.0001) %MON RAW_max                      =   1.9760627980089E+11
(PID.TID 0000.0001) %MON RAW_min                      =   4.1109698667290E+10
(PID.TID 0000.0001) %MON RAW_mean                     =   1.3948826965197E+11
(PID.TID 0000.0001) %MON RAW_sd                       =   4.9870522472902E+10
(PID.TID 0000.0001) %MON RAS_max                      =   1.9772672958215E+11
(PID.TID 0000.0001) %MON RAS_min                      =   3.4334886267983E+10
(PID.TID 0000.0001) %MON RAS_mean                     =   1.3940329716694E+11
(PID.TID 0000.0001) %MON RAS_sd                       =   5.0049278732354E+10
(PID.TID 0000.0001) %MON RAZ_max                      =   1.9772672958215E+11
(PID.TID 0000.0001) %MON RAZ_min                      =   3.4334886267983E+10
(PID.TID 0000.0001) %MON RAZ_mean                     =   1.3940329716694E+11
(PID.TID 0000.0001) %MON RAZ_sd                       =   5.0049278732354E+10
(PID.TID 0000.0001) %MON AngleCS_max                  =   1.0000000000000E+00
(PID.TID 0000.0001) %MON AngleCS_min                  =   1.0000000000000E+00
(PID.TID 0000.0001) %MON AngleCS_mean                 =   1.0000000000000E+00
(PID.TID 0000.0001) %MON AngleCS_sd                   =   0.0000000000000E+00
(PID.TID 0000.0001) %MON AngleSN_max                  =   0.0000000000000E+00
(PID.TID 0000.0001) %MON AngleSN_min                  =   0.0000000000000E+00
(PID.TID 0000.0001) %MON AngleSN_mean                 =   0.0000000000000E+00
(PID.TID 0000.0001) %MON AngleSN_sd                   =   0.0000000000000E+00
(PID.TID 0000.0001)  MDSREADFIELD: opening global file: bathymetry.bin
(PID.TID 0000.0001) // =======================================================
(PID.TID 0000.0001) // Field Model R_low (ini_masks_etc) at iteration          1
(PID.TID 0000.0001) // CMIN =         -5.200000000000000E+03
(PID.TID 0000.0001) // CMAX =         -1.200000000000000E+02
(PID.TID 0000.0001) // CINT =          1.881481481481482E+02
(PID.TID 0000.0001) // SYMBOLS (CMIN->CMAX): -abcdefghijklmnopqrstuvwxyz+
(PID.TID 0000.0001) //                  0.0: .
(PID.TID 0000.0001) // RANGE I (Lo:Hi:Step):(  -2:  93:   1)
(PID.TID 0000.0001) // RANGE J (Lo:Hi:Step):(  43:  -2:  -1)
(PID.TID 0000.0001) // RANGE K (Lo:Hi:Step):(   1:   1:   1)
(PID.TID 0000.0001) // =======================================================
(PID.TID 0000.0001) K =   1
(PID.TID 0000.0001) //                I=7       I=17      I=27      I=37      I=47      I=57      I=67      I=77      I=87
(PID.TID 0000.0001) // |--J--|210123456|890123456|890123456|890123456|890123456|890123456|890123456|890123456|890123456|890123
(PID.TID 0000.0001) //     43 ................................................................................................
(PID.TID 0000.0001) //     42 .............................................zyxxmgfeeefefgimnpwwwy..+zyy.....yyyyoiiihhz+......
(PID.TID 0000.0001) //     41 ................................................................................................
(PID.TID 0000.0001) //     40 +qlloqz+.++++zzz++++++..................................................................+++qlloq
(PID.TID 0000.0001) //     39 uslloorzzzzzzzzz+...++.....................................................yxxz........+zvuslloo
(PID.TID 0000.0001) //     38 smqpporzzzzzz+++...........................................................zxxy+......zyyvsmqppo
(PID.TID 0000.0001) //     37 smmmuz..................................................................++...zy+...yttyy.+smmmuz
(PID.TID 0000.0001) //     36 yutt+.........................................mm++....................+++++++znmm.yoowssvuyutt+.
(PID.TID 0000.0001) //     35 w++++.................................+zzz..rrmmkk+...+gghn...........+++....+nmiijlsoopuww++++.
(PID.TID 0000.0001) //     34 +.....................................+vvy.ggqyxv+y.ccdffhim..................+nihhikkihhm+.....
(PID.TID 0000.0001) //     33 w+.....................................uuz---h------aaabdefin+.................zqvddflifffw+....
(PID.TID 0000.0001) //     32 m+.....................................+t----h---------acdfgnn................+++gdffkofffm+....
(PID.TID 0000.0001) //     31 m......................................-----ad--------abddegil..............qbaafccdhqqgddm.....
(PID.TID 0000.0001) //     30 i.....................................f----b--b------------abd............zfbb--fbcdosjfddi.....
(PID.TID 0000.0001) //     29 i...................................tu----e---fjg----------abdf...........eaac--abfmijaadgi.....
(PID.TID 0000.0001) //     28 z.................................+xfl-------------------bdedefi.........qbaa---aemfbbaaejz.....
(PID.TID 0000.0001) //     27 .................xx..............+wfgfpf--------eallc---bbbccefgi...+++x.qb-----akfa---ah.......
(PID.TID 0000.0001) //     26 .................xnn...........+vd---dna------a--aicfna---aabdfghku.++xssuy-----bgca---ci.......
(PID.TID 0000.0001) //     25 .................iiik...oo+...+ivd---doaa-bc--ilglf--aa---aabcghhkll...ssum+xaaacjbaabdjk.......
(PID.TID 0000.0001) //     24 ...............xnheeft.kkk+...uii.aagdm----aa-----a-------bbbcdefjljjju.zummwwbbchba--abi.......
(PID.TID 0000.0001) //     23 ...............xgheefp.iikw...uuw..fihi----fed-----eaaa--bbbbcdfflkjiiiq....zykccefa--abd.......
(PID.TID 0000.0001) //     22 quss...........bbelffslffkk...zz.wqkeeqoheccdfa-----egabaabcdddegghliiiqq......xeeehheehccquss..
(PID.TID 0000.0001) //     21 cbbeir........nbbcdjhqdddiiz.....wqfeelgghmedea-----bibbcddddddefghklnqoo........ieeflhgcccbbeir
(PID.TID 0000.0001) //     20 cbbder.......ldcccdgkccccidd......z.vkkktqqhegg----aaacddddddddefghkiiijl.........nhfa--gfcbbder
(PID.TID 0000.0001) //     19 hcdaaf.......kddosggpaaaibbccx...+z+.....r+nlec---agaaabcddccddefikfgffff...........d---cjhcdaaf
(PID.TID 0000.0001) //     18 hd---d.......kglggvliaaaibbcaaeaiv++...qqzolhecccfdgkaabcdfccdeeikgfgffdd+..........d---djhd---d
(PID.TID 0000.0001) //     17 hc---c.......l.feewlfaaaoaa----aiv.....qqnllslmlofcdbaacceffffhhligfigeddj.........hd---ckhc---c
(PID.TID 0000.0001) //     16 gba--c......tn.ddgnlfdaaqa-----lv.......vnllvllnwv--accivomfffhilhgfffeddjf........re--aeigba--c
(PID.TID 0000.0001) //     15 fb--dpz....+ll.ccdfhmdddlc----av.........otsxoomv---abccddfihgijkhgfffeejfff......+fd---ckfb--dp
(PID.TID 0000.0001) //     14 fc--mcl....weeqbaafilkfend--eagy.........hhstofft----aacdheefijkmjhhjijiffff.....zlfdaaadlfc--mc
(PID.TID 0000.0001) //     13 hcclbbg....nccobaaiddgkffqrqeaal.........eeutqfft------aaceeffhijlkjhhigfffq....+jgfodccflhcclbb
(PID.TID 0000.0001) //     12 hhgaaacw+iiicclemhdddfliigfdcaabfaaaz....ccsurqpc--------abcifffikiiihhggff.....kbbbdfffglhhgaaa
(PID.TID 0000.0001) //     11 kgcaaacbbifccennhbbdefnihgfdccaaaa----..dcccnt.ncab-------aabcdfilhggjiggff....l---abcefjlkgcaaa
(PID.TID 0000.0001) //     10 kfcaaccbdaacfrllfbbdegkmmljhfdddba----d.dcccfx.nyrebaba----abcdgilhfeegijgi..+w--aa-abcfilkfcaac
(PID.TID 0000.0001) //      9 lffcdcccaaaoqsolfdeehikihhlllgfedcccccdmdcccf.vyfaaaaaaaa--abdehmjhfeeefglv.++w-----abcdfklffcdc
(PID.TID 0000.0001) //      8 liffjklcaafddffeeccvznkfffhhhlkjifgjkkfeeddfsyvcaaaaaaccdcccdfgjligedbbceg+.++xffn--cfddefliffjk
(PID.TID 0000.0001) //      7 hmqnnbbkkf--bmbaabbgtykfddeffeeddccdfhlffeelfbaaaaaacddeghgjgjlligeddaaabedfiiiiiisvkfkecchmqnnb
(PID.TID 0000.0001) //      6 cca-------------aabcelttdddedddddccccdfkkiiffbaaaabcdgimmkmefecaaabbbaaabbdfiiiiispmmregifcca---
(PID.TID 0000.0001) //      5 --------a-------aaccehhhiddeddddddcccdfiikomodddefffmlmigedccaaaaaaaababbbdfiijsqgeccccbaa------
(PID.TID 0000.0001) //      4 --ahebaabbbbbeihffgijiiiijpywnnpokkomkiiijmmmolkommmgffeeedccaaaaaabbcccefhmz..yjgeccccbaa--aheb
(PID.TID 0000.0001) //      3 gffhhrpjiiwyy............................yxotmjjjjgfeeeeeeddeffffheddeghjkyy..yqjgeddccdbbgffhhr
(PID.TID 0000.0001) //      2 .............................................zyxxmgfeeefefgimnpwwwy..+zyy.....yyyyoiiihhz+......
(PID.TID 0000.0001) //      1 ................................................................................................
(PID.TID 0000.0001) //      0 +qlloqz+.++++zzz++++++..................................................................+++qlloq
(PID.TID 0000.0001) //     -1 uslloorzzzzzzzzz+...++.....................................................yxxz........+zvuslloo
(PID.TID 0000.0001) //     -2 ................................................................................................
(PID.TID 0000.0001) // =======================================================
(PID.TID 0000.0001) // END OF FIELD                                          =
(PID.TID 0000.0001) // =======================================================
(PID.TID 0000.0001) 
(PID.TID 0000.0001) // =======================================================
(PID.TID 0000.0001) // Field Model Ro_surf (ini_masks_etc) at iteration          1
(PID.TID 0000.0001) // CMIN =          1.000000000000000E+32
(PID.TID 0000.0001) // CMAX =         -1.000000000000000E+32
(PID.TID 0000.0001) // CINT =          0.000000000000000E+00
(PID.TID 0000.0001) // SYMBOLS (CMIN->CMAX): -abcdefghijklmnopqrstuvwxyz+
(PID.TID 0000.0001) //                  0.0: .
(PID.TID 0000.0001) // RANGE I (Lo:Hi:Step):(  -2:  93:   1)
(PID.TID 0000.0001) // RANGE J (Lo:Hi:Step):(  43:  -2:  -1)
(PID.TID 0000.0001) // RANGE K (Lo:Hi:Step):(   1:   1:   1)
(PID.TID 0000.0001) // =======================================================
(PID.TID 0000.0001) // =======================================================
(PID.TID 0000.0001) // END OF FIELD                                          =
(PID.TID 0000.0001) // =======================================================
(PID.TID 0000.0001) 
(PID.TID 0000.0001) // =======================================================
(PID.TID 0000.0001) // Field hFacC at iteration          1
(PID.TID 0000.0001) // CMIN =          1.000000000000000E+00
(PID.TID 0000.0001) // CMAX =          1.000000000000000E+00
(PID.TID 0000.0001) // CINT =          0.000000000000000E+00
(PID.TID 0000.0001) // SYMBOLS (CMIN->CMAX): -abcdefghijklmnopqrstuvwxyz+
(PID.TID 0000.0001) //                  0.0: .
(PID.TID 0000.0001) // RANGE I (Lo:Hi:Step):(  -2:  93:   1)
(PID.TID 0000.0001) // RANGE J (Lo:Hi:Step):(  43:  -2:  -1)
(PID.TID 0000.0001) // RANGE K (Lo:Hi:Step):(   1:   1:   1)
(PID.TID 0000.0001) // =======================================================
(PID.TID 0000.0001) // =======================================================
(PID.TID 0000.0001) // END OF FIELD                                          =
(PID.TID 0000.0001) // =======================================================
(PID.TID 0000.0001) 
(PID.TID 0000.0001) // =======================================================
(PID.TID 0000.0001) // Field hFacW at iteration          1
(PID.TID 0000.0001) // CMIN =          1.000000000000000E+00
(PID.TID 0000.0001) // CMAX =          1.000000000000000E+00
(PID.TID 0000.0001) // CINT =          0.000000000000000E+00
(PID.TID 0000.0001) // SYMBOLS (CMIN->CMAX): -abcdefghijklmnopqrstuvwxyz+
(PID.TID 0000.0001) //                  0.0: .
(PID.TID 0000.0001) // RANGE I (Lo:Hi:Step):(  -2:  93:   1)
(PID.TID 0000.0001) // RANGE J (Lo:Hi:Step):(  43:  -2:  -1)
(PID.TID 0000.0001) // RANGE K (Lo:Hi:Step):(   1:   1:   1)
(PID.TID 0000.0001) // =======================================================
(PID.TID 0000.0001) // =======================================================
(PID.TID 0000.0001) // END OF FIELD                                          =
(PID.TID 0000.0001) // =======================================================
(PID.TID 0000.0001) 
(PID.TID 0000.0001) // =======================================================
(PID.TID 0000.0001) // Field hFacS at iteration          1
(PID.TID 0000.0001) // CMIN =          1.000000000000000E+00
(PID.TID 0000.0001) // CMAX =          1.000000000000000E+00
(PID.TID 0000.0001) // CINT =          0.000000000000000E+00
(PID.TID 0000.0001) // SYMBOLS (CMIN->CMAX): -abcdefghijklmnopqrstuvwxyz+
(PID.TID 0000.0001) //                  0.0: .
(PID.TID 0000.0001) // RANGE I (Lo:Hi:Step):(  -2:  93:   1)
(PID.TID 0000.0001) // RANGE J (Lo:Hi:Step):(  43:  -2:  -1)
(PID.TID 0000.0001) // RANGE K (Lo:Hi:Step):(   1:   1:   1)
(PID.TID 0000.0001) // =======================================================
(PID.TID 0000.0001) // =======================================================
(PID.TID 0000.0001) // END OF FIELD                                          =
(PID.TID 0000.0001) // =======================================================
(PID.TID 0000.0001) 
(PID.TID 0000.0001) 
(PID.TID 0000.0001) // ===================================
(PID.TID 0000.0001) // GAD parameters :
(PID.TID 0000.0001) // ===================================
(PID.TID 0000.0001) tempAdvScheme =   /* Temp. Horiz.Advection scheme selector */
(PID.TID 0000.0001)                       2
(PID.TID 0000.0001)     ;
(PID.TID 0000.0001) tempVertAdvScheme =   /* Temp. Vert. Advection scheme selector */
(PID.TID 0000.0001)                       2
(PID.TID 0000.0001)     ;
(PID.TID 0000.0001) tempMultiDimAdvec =   /* use Muti-Dim Advec method for Temp */
(PID.TID 0000.0001)                   F
(PID.TID 0000.0001)     ;
(PID.TID 0000.0001) AdamsBashforthGt =   /* apply Adams-Bashforth extrapolation on Gt */
(PID.TID 0000.0001)                   T
(PID.TID 0000.0001)     ;
(PID.TID 0000.0001) AdamsBashforth_T =   /* apply Adams-Bashforth extrapolation on Temp */
(PID.TID 0000.0001)                   F
(PID.TID 0000.0001)     ;
(PID.TID 0000.0001) saltAdvScheme =   /* Salt. Horiz.advection scheme selector */
(PID.TID 0000.0001)                       2
(PID.TID 0000.0001)     ;
(PID.TID 0000.0001) saltVertAdvScheme =   /* Salt. Vert. Advection scheme selector */
(PID.TID 0000.0001)                       2
(PID.TID 0000.0001)     ;
(PID.TID 0000.0001) saltMultiDimAdvec =   /* use Muti-Dim Advec method for Salt */
(PID.TID 0000.0001)                   F
(PID.TID 0000.0001)     ;
(PID.TID 0000.0001) AdamsBashforthGs =   /* apply Adams-Bashforth extrapolation on Gs */
(PID.TID 0000.0001)                   T
(PID.TID 0000.0001)     ;
(PID.TID 0000.0001) AdamsBashforth_S =   /* apply Adams-Bashforth extrapolation on Salt */
(PID.TID 0000.0001)                   F
(PID.TID 0000.0001)     ;
(PID.TID 0000.0001) // ===================================
(PID.TID 0000.0001) ctrl-wet 1:    nvarlength =        96912
(PID.TID 0000.0001) ctrl-wet 2: surface wet C =         2315
(PID.TID 0000.0001) ctrl-wet 3: surface wet W =         2206
(PID.TID 0000.0001) ctrl-wet 4: surface wet S =         2149
(PID.TID 0000.0001) ctrl-wet 4a:surface wet V =            0
(PID.TID 0000.0001) ctrl-wet 5: 3D wet points =        29309
(PID.TID 0000.0001) ctrl-wet 6: no recs for i =     1           1
(PID.TID 0000.0001) ctrl-wet 6: no recs for i =     2           1
(PID.TID 0000.0001) ctrl-wet 6: no recs for i =     3           1
(PID.TID 0000.0001) ctrl-wet 6: no recs for i =     4           1
(PID.TID 0000.0001) ctrl-wet 6: no recs for i =     5           1
(PID.TID 0000.0001) ctrl-wet 6: no recs for i =     6           1
(PID.TID 0000.0001) ctrl-wet 6: no recs for i =     7           0
(PID.TID 0000.0001) ctrl-wet 6: no recs for i =     8           0
(PID.TID 0000.0001) ctrl-wet 6: no recs for i =     9           0
(PID.TID 0000.0001) ctrl-wet 6: no recs for i =    10           0
(PID.TID 0000.0001) ctrl-wet 6: no recs for i =    11           0
(PID.TID 0000.0001) ctrl-wet 6: no recs for i =    12           0
(PID.TID 0000.0001) ctrl-wet 6: no recs for i =    13           0
(PID.TID 0000.0001) ctrl-wet 6: no recs for i =    14           0
(PID.TID 0000.0001) ctrl-wet 6: no recs for i =    15           1
(PID.TID 0000.0001) ctrl-wet 6: no recs for i =    16           0
(PID.TID 0000.0001) ctrl-wet 6: no recs for i =    17           0
(PID.TID 0000.0001) ctrl-wet 6: no recs for i =    18           0
(PID.TID 0000.0001) ctrl-wet 6: no recs for i =    19           0
(PID.TID 0000.0001) ctrl-wet 6: no recs for i =    20           0
(PID.TID 0000.0001) ctrl-wet 6: no recs for i =    21           0
(PID.TID 0000.0001) ctrl-wet 6: no recs for i =    22           0
(PID.TID 0000.0001) ctrl-wet 6: no recs for i =    23           0
(PID.TID 0000.0001) ctrl-wet 6: no recs for i =    24           0
(PID.TID 0000.0001) ctrl-wet 6: no recs for i =    25           0
(PID.TID 0000.0001) ctrl-wet 6: no recs for i =    26           0
(PID.TID 0000.0001) ctrl-wet 6: no recs for i =    27           0
(PID.TID 0000.0001) ctrl-wet 6: no recs for i =    28           0
(PID.TID 0000.0001) ctrl-wet 6: no recs for i =    29           0
(PID.TID 0000.0001) ctrl-wet 6: no recs for i =    30           0
(PID.TID 0000.0001) ctrl-wet 6: no recs for i =    31           0
(PID.TID 0000.0001) ctrl-wet 6: no recs for i =    32           0
(PID.TID 0000.0001) ctrl-wet 6: no recs for i =    33           0
(PID.TID 0000.0001) ctrl-wet 6: no recs for i =    34           0
(PID.TID 0000.0001) ctrl-wet 6: no recs for i =    35           0
(PID.TID 0000.0001) ctrl-wet 6: no recs for i =    36           0
(PID.TID 0000.0001) ctrl-wet 6: no recs for i =    37           0
(PID.TID 0000.0001) ctrl-wet 6: no recs for i =    38           0
(PID.TID 0000.0001) ctrl-wet 6: no recs for i =    39           0
(PID.TID 0000.0001) ctrl-wet 6: no recs for i =    40           0
(PID.TID 0000.0001) ctrl-wet 7: flux         67603
(PID.TID 0000.0001) ctrl-wet 8: atmos        58618
(PID.TID 0000.0001) ctrl-wet 13: global nvarlength vor k=   16       96912
(PID.TID 0000.0001) ctrl_init: no. of control variables:            7
(PID.TID 0000.0001) ctrl_init: control vector length:           96912
(PID.TID 0000.0001) GMREDI_CHECK: #define GMREDI
(PID.TID 0000.0001) GM_AdvForm =  /* if FALSE => use SkewFlux Form */
(PID.TID 0000.0001)                   T
(PID.TID 0000.0001)     ;
(PID.TID 0000.0001) GM_AdvSeparate = /* Calc Bolus & Euler Adv. separately */
(PID.TID 0000.0001)                   F
(PID.TID 0000.0001)     ;
(PID.TID 0000.0001) GM_ExtraDiag =  /* Tensor Extra Diag (line 1&2) non 0 */
(PID.TID 0000.0001)                   T
(PID.TID 0000.0001)     ;
(PID.TID 0000.0001) GM_isopycK =   /* Background Isopyc. Diffusivity ( m^2/s ) */
(PID.TID 0000.0001)                 1.100000000000000E+03
(PID.TID 0000.0001)     ;
(PID.TID 0000.0001)  GM_skewflx*K =   /* Background GM_SkewFlx Diffusivity ( m^2/s ) */
(PID.TID 0000.0001)                 0.000000000000000E+00
(PID.TID 0000.0001)     ;
(PID.TID 0000.0001)  GM_advec*K =   /* Backg. GM-Advec(=Bolus) Diffusivity ( m^2/s ) */
(PID.TID 0000.0001)                 9.000000000000000E+02
(PID.TID 0000.0001)     ;
(PID.TID 0000.0001)  GM_Visbeck_alpha =   /* Visbeck alpha coeff. ( ) */
(PID.TID 0000.0001)                 0.000000000000000E+00
(PID.TID 0000.0001)     ;
(PID.TID 0000.0001)  Tapering/Cliping : dm95
(PID.TID 0000.0001)  GM_Small_Number =  /* epsilon used in slope calc */
(PID.TID 0000.0001)                 9.999999999999999E-21
(PID.TID 0000.0001)     ;
(PID.TID 0000.0001)  GM_slopeSqCutoff =  /* Slope^2 cut-off value */
(PID.TID 0000.0001)                 1.000000000000000E+08
(PID.TID 0000.0001)     ;
(PID.TID 0000.0001) CTRL_CHECK: ctrl package
(PID.TID 0000.0001) COST_CHECK: cost package
(PID.TID 0000.0001) CTRL_CHECK: ctrl package
(PID.TID 0000.0001) %MON fCori_max                    =   1.4226580169407E-04
(PID.TID 0000.0001) %MON fCori_min                    =  -1.4226580169407E-04
(PID.TID 0000.0001) %MON fCori_mean                   =   7.5291817533716E-23
(PID.TID 0000.0001) %MON fCori_sd                     =   9.6335367303778E-05
(PID.TID 0000.0001) %MON fCoriG_max                   =   1.4112379284621E-04
(PID.TID 0000.0001) %MON fCoriG_min                   =  -1.4323448157692E-04
(PID.TID 0000.0001) %MON fCoriG_mean                  =  -3.6726790147928E-06
(PID.TID 0000.0001) %MON fCoriG_sd                    =   9.7510077443652E-05
(PID.TID 0000.0001) %MON fCoriCos_max                 =   1.4535550371427E-04
(PID.TID 0000.0001) %MON fCoriCos_min                 =   3.0239529651320E-05
(PID.TID 0000.0001) %MON fCoriCos_mean                =   1.0260497651149E-04
(PID.TID 0000.0001) %MON fCoriCos_sd                  =   3.6683828681187E-05
(PID.TID 0000.0001) INI_CG2D: CG2D normalisation factor =  6.5682677425711703E-05
(PID.TID 0000.0001) 
(PID.TID 0000.0001) CONFIG_CHECK: OK
(PID.TID 0000.0001) // =======================================================
(PID.TID 0000.0001) // Model configuration
(PID.TID 0000.0001) // =======================================================
(PID.TID 0000.0001) //
(PID.TID 0000.0001) // "Physical" paramters ( PARM01 in namelist )
(PID.TID 0000.0001) //
(PID.TID 0000.0001) buoyancyRelation = OCEANIC
(PID.TID 0000.0001) fluidIsAir  =  /* fluid major constituent is Air */
(PID.TID 0000.0001)                   F
(PID.TID 0000.0001)     ;
(PID.TID 0000.0001) fluidIsWater=  /* fuild major constituent is Water */
(PID.TID 0000.0001)                   T
(PID.TID 0000.0001)     ;
(PID.TID 0000.0001) usingPCoords =  /* use p (or p*) vertical coordinate */
(PID.TID 0000.0001)                   F
(PID.TID 0000.0001)     ;
(PID.TID 0000.0001) usingZCoords =  /* use z (or z*) vertical coordinate */
(PID.TID 0000.0001)                   T
(PID.TID 0000.0001)     ;
(PID.TID 0000.0001) tRef =   /* Reference temperature profile ( oC or K ) */
(PID.TID 0000.0001)    15 @  2.000000000000000E+01              /* K =  1: 15 */
(PID.TID 0000.0001)     ;
(PID.TID 0000.0001) sRef =   /* Reference salinity profile ( psu ) */
(PID.TID 0000.0001)    15 @  3.500000000000000E+01              /* K =  1: 15 */
(PID.TID 0000.0001)     ;
(PID.TID 0000.0001) viscAh =   /* Lateral eddy viscosity ( m^2/s ) */
(PID.TID 0000.0001)                 5.000000000000000E+05
(PID.TID 0000.0001)     ;
(PID.TID 0000.0001) viscAhMax =   /* Maximum lateral eddy viscosity ( m^2/s ) */
(PID.TID 0000.0001)                 1.000000000000000E+21
(PID.TID 0000.0001)     ;
(PID.TID 0000.0001) viscAhGrid =   /* Grid dependent lateral eddy viscosity ( non-dim. ) */
(PID.TID 0000.0001)                 0.000000000000000E+00
(PID.TID 0000.0001)     ;
(PID.TID 0000.0001) useFullLeith =   /* Use Full Form of Leith Viscosity on/off flag*/
(PID.TID 0000.0001)                   F
(PID.TID 0000.0001)     ;
(PID.TID 0000.0001) useStrainTensionVisc =   /* Use StrainTension Form of Viscous Operator on/off flag*/
(PID.TID 0000.0001)                   F
(PID.TID 0000.0001)     ;
(PID.TID 0000.0001) useAreaViscLength =   /* Use area for visc length instead of geom. mean*/
(PID.TID 0000.0001)                   F
(PID.TID 0000.0001)     ;
(PID.TID 0000.0001) viscC2leith = /* Leith harmonic visc. factor (on grad(vort),non-dim.) */
(PID.TID 0000.0001)                 0.000000000000000E+00
(PID.TID 0000.0001)     ;
(PID.TID 0000.0001) viscC2leithD = /* Leith harmonic viscosity factor (on grad(div),non-dim.) */
(PID.TID 0000.0001)                 0.000000000000000E+00
(PID.TID 0000.0001)     ;
(PID.TID 0000.0001) viscC2smag =   /* Smagorinsky harmonic viscosity factor (non-dim.) */
(PID.TID 0000.0001)                 0.000000000000000E+00
(PID.TID 0000.0001)     ;
(PID.TID 0000.0001) viscA4 =   /* Lateral biharmonic viscosity ( m^4/s ) */
(PID.TID 0000.0001)                 0.000000000000000E+00
(PID.TID 0000.0001)     ;
(PID.TID 0000.0001) viscA4Max =   /* Maximum biharmonic viscosity ( m^2/s ) */
(PID.TID 0000.0001)                 1.000000000000000E+21
(PID.TID 0000.0001)     ;
(PID.TID 0000.0001) viscA4Grid =   /* Grid dependent biharmonic viscosity ( non-dim. ) */
(PID.TID 0000.0001)                 0.000000000000000E+00
(PID.TID 0000.0001)     ;
(PID.TID 0000.0001) viscC4leith = /* Leith biharm viscosity factor (on grad(vort), non-dim.) */
(PID.TID 0000.0001)                 0.000000000000000E+00
(PID.TID 0000.0001)     ;
(PID.TID 0000.0001) viscC4leithD = /* Leith biharm viscosity factor (on grad(div), non-dim.) */
(PID.TID 0000.0001)                 0.000000000000000E+00
(PID.TID 0000.0001)     ;
(PID.TID 0000.0001) viscC4Smag = /* Smagorinsky biharm viscosity factor (non-dim) */
(PID.TID 0000.0001)                 0.000000000000000E+00
(PID.TID 0000.0001)     ;
(PID.TID 0000.0001) no_slip_sides =  /* Viscous BCs: No-slip sides */
(PID.TID 0000.0001)                   T
(PID.TID 0000.0001)     ;
(PID.TID 0000.0001) sideDragFactor = /* side-drag scaling factor (non-dim) */
(PID.TID 0000.0001)                 2.000000000000000E+00
(PID.TID 0000.0001)     ;
(PID.TID 0000.0001) viscAr =   /* Vertical eddy viscosity ( units of r^2/s ) */
(PID.TID 0000.0001)                 1.000000000000000E-03
(PID.TID 0000.0001)     ;
(PID.TID 0000.0001) no_slip_bottom =  /* Viscous BCs: No-slip bottom */
(PID.TID 0000.0001)                   T
(PID.TID 0000.0001)     ;
(PID.TID 0000.0001) bottomDragLinear = /* linear bottom-drag coefficient ( 1/s ) */
(PID.TID 0000.0001)                 0.000000000000000E+00
(PID.TID 0000.0001)     ;
(PID.TID 0000.0001) bottomDragQuadratic = /* quadratic bottom-drag coeff. ( 1/m ) */
(PID.TID 0000.0001)                 0.000000000000000E+00
(PID.TID 0000.0001)     ;
(PID.TID 0000.0001) diffKhT =   /* Laplacian diffusion of heat laterally ( m^2/s ) */
(PID.TID 0000.0001)                 0.000000000000000E+00
(PID.TID 0000.0001)     ;
(PID.TID 0000.0001) diffK4T =   /* Bihaarmonic diffusion of heat laterally ( m^4/s ) */
(PID.TID 0000.0001)                 0.000000000000000E+00
(PID.TID 0000.0001)     ;
(PID.TID 0000.0001) diffKhS =   /* Laplacian diffusion of salt laterally ( m^2/s ) */
(PID.TID 0000.0001)                 0.000000000000000E+00
(PID.TID 0000.0001)     ;
(PID.TID 0000.0001) diffK4S =   /* Bihaarmonic diffusion of salt laterally ( m^4/s ) */
(PID.TID 0000.0001)                 0.000000000000000E+00
(PID.TID 0000.0001)     ;
(PID.TID 0000.0001) diffKrNrT = /* vertical profile of vertical diffusion of Temp ( m^2/s )*/
(PID.TID 0000.0001)    15 @  3.000000000000000E-05              /* K =  1: 15 */
(PID.TID 0000.0001)     ;
(PID.TID 0000.0001) diffKrNrS = /* vertical profile of vertical diffusion of Salt ( m^2/s )*/
(PID.TID 0000.0001)    15 @  3.000000000000000E-05              /* K =  1: 15 */
(PID.TID 0000.0001)     ;
(PID.TID 0000.0001) diffKrBL79surf =   /* Surface diffusion for Bryan and Lewis 1979 ( m^2/s ) */
(PID.TID 0000.0001)                 0.000000000000000E+00
(PID.TID 0000.0001)     ;
(PID.TID 0000.0001) diffKrBL79deep =   /* Deep diffusion for Bryan and Lewis 1979 ( m^2/s ) */
(PID.TID 0000.0001)                 0.000000000000000E+00
(PID.TID 0000.0001)     ;
(PID.TID 0000.0001) diffKrBL79scl =   /* Depth scale for Bryan and Lewis 1979 ( m ) */
(PID.TID 0000.0001)                 2.000000000000000E+02
(PID.TID 0000.0001)     ;
(PID.TID 0000.0001) diffKrBL79Ho =   /* Turning depth for Bryan and Lewis 1979 ( m ) */
(PID.TID 0000.0001)                -2.000000000000000E+03
(PID.TID 0000.0001)     ;
(PID.TID 0000.0001) Equation of State : eosType = POLY3  ;
(PID.TID 0000.0001) tAlpha =   /* Linear EOS thermal expansion coefficient ( 1/oC ) */
(PID.TID 0000.0001)                 1.234567000000000E+05
(PID.TID 0000.0001)     ;
(PID.TID 0000.0001) sBeta =   /* Linear EOS haline contraction coefficient ( 1/psu ) */
(PID.TID 0000.0001)                 1.234567000000000E+05
(PID.TID 0000.0001)     ;
(PID.TID 0000.0001)   1  13.497  32.600  24.548  -0.202   0.773  -0.005  -0.002   0.000   0.000   0.000   0.000   0.000
(PID.TID 0000.0001)   2  13.488  32.600  24.819  -0.204   0.773  -0.005  -0.002   0.000   0.000   0.000   0.000   0.000
(PID.TID 0000.0001)   3  13.476  32.600  25.201  -0.205   0.772  -0.005  -0.002   0.000   0.000   0.000   0.000   0.000
(PID.TID 0000.0001)   4   8.469  35.150  28.642  -0.163   0.784  -0.005  -0.002   0.000   0.000   0.000   0.000   0.000
(PID.TID 0000.0001)   5   8.451  35.150  29.393  -0.167   0.782  -0.005  -0.002   0.000   0.000   0.000   0.000   0.000
(PID.TID 0000.0001)   6   5.940  34.900  30.563  -0.144   0.786  -0.005  -0.002  -0.001   0.000   0.000   0.000   0.000
(PID.TID 0000.0001)   7   4.425  34.900  31.985  -0.134   0.788  -0.005  -0.003   0.000   0.000   0.000   0.000   0.000
(PID.TID 0000.0001)   8   2.911  34.750  33.505  -0.125   0.789  -0.006  -0.003   0.000   0.000   0.000   0.000   0.000
(PID.TID 0000.0001)   9   1.893  34.800  35.341  -0.123   0.789  -0.006  -0.003   0.000   0.000   0.000   0.000   0.000
(PID.TID 0000.0001)  10   1.367  34.800  37.299  -0.129   0.787  -0.006  -0.003   0.000   0.000   0.000   0.000   0.000
(PID.TID 0000.0001)  11   1.327  34.800  39.405  -0.141   0.783  -0.005  -0.003   0.000   0.000   0.000   0.000   0.000
(PID.TID 0000.0001)  12   0.791  34.800  41.788  -0.149   0.780  -0.005  -0.003   0.000   0.000   0.000   0.000   0.000
(PID.TID 0000.0001)  13   0.736  34.750  44.259  -0.164   0.776  -0.005  -0.002   0.000   0.000   0.000   0.000   0.000
(PID.TID 0000.0001)  14   0.186  34.750  47.044  -0.175   0.773  -0.005  -0.002   0.000   0.000   0.000   0.000   0.000
(PID.TID 0000.0001)  15   0.595  34.750  49.835  -0.196   0.767  -0.004  -0.002   0.000   0.000   0.000   0.000   0.000
(PID.TID 0000.0001) rhonil =   /* Reference density ( kg/m^3 ) */
(PID.TID 0000.0001)                 1.035000000000000E+03
(PID.TID 0000.0001)     ;
(PID.TID 0000.0001) rhoConst =   /* Reference density ( kg/m^3 ) */
(PID.TID 0000.0001)                 1.035000000000000E+03
(PID.TID 0000.0001)     ;
(PID.TID 0000.0001) rhoConstFresh =   /* Reference density ( kg/m^3 ) */
(PID.TID 0000.0001)                 1.035000000000000E+03
(PID.TID 0000.0001)     ;
(PID.TID 0000.0001) gravity =   /* Gravitational acceleration ( m/s^2 ) */
(PID.TID 0000.0001)                 9.810000000000000E+00
(PID.TID 0000.0001)     ;
(PID.TID 0000.0001) gBaro =   /* Barotropic gravity ( m/s^2 ) */
(PID.TID 0000.0001)                 9.810000000000000E+00
(PID.TID 0000.0001)     ;
(PID.TID 0000.0001) rotationPeriod =   /* Rotation Period ( s ) */
(PID.TID 0000.0001)                 8.640000000000000E+04
(PID.TID 0000.0001)     ;
(PID.TID 0000.0001) omega =   /* Angular velocity ( rad/s ) */
(PID.TID 0000.0001)                 7.272205216643040E-05
(PID.TID 0000.0001)     ;
(PID.TID 0000.0001) f0 =   /* Reference coriolis parameter ( 1/s ) */
(PID.TID 0000.0001)                 1.000000000000000E-04
(PID.TID 0000.0001)     ;
(PID.TID 0000.0001) beta =   /* Beta ( 1/(m.s) ) */
(PID.TID 0000.0001)                 9.999999999999999E-12
(PID.TID 0000.0001)     ;
(PID.TID 0000.0001) freeSurfFac =   /* Implicit free surface factor */
(PID.TID 0000.0001)                 1.000000000000000E+00
(PID.TID 0000.0001)     ;
(PID.TID 0000.0001) implicitFreeSurface =   /* Implicit free surface on/off flag */
(PID.TID 0000.0001)                   T
(PID.TID 0000.0001)     ;
(PID.TID 0000.0001) rigidLid =   /* Rigid lid on/off flag */
(PID.TID 0000.0001)                   F
(PID.TID 0000.0001)     ;
(PID.TID 0000.0001) implicSurfPress =   /* Surface Pressure implicit factor (0-1)*/
(PID.TID 0000.0001)                 1.000000000000000E+00
(PID.TID 0000.0001)     ;
(PID.TID 0000.0001) implicDiv2Dflow =   /* Barot. Flow Div. implicit factor (0-1)*/
(PID.TID 0000.0001)                 1.000000000000000E+00
(PID.TID 0000.0001)     ;
(PID.TID 0000.0001) exactConserv =   /* Exact Volume Conservation on/off flag*/
(PID.TID 0000.0001)                   F
(PID.TID 0000.0001)     ;
(PID.TID 0000.0001) uniformLin_PhiSurf =   /* use uniform Bo_surf on/off flag*/
(PID.TID 0000.0001)                   T
(PID.TID 0000.0001)     ;
(PID.TID 0000.0001) nonlinFreeSurf =   /* Non-linear Free Surf. options (-1,0,1,2,3)*/
(PID.TID 0000.0001)                       0
(PID.TID 0000.0001)     ;
(PID.TID 0000.0001)      -1,0= Off ; 1,2,3= On, 2=+rescale gU,gV, 3=+update cg2d solv.
(PID.TID 0000.0001) hFacInf =   /* lower threshold for hFac (nonlinFreeSurf only)*/
(PID.TID 0000.0001)                 2.000000000000000E-01
(PID.TID 0000.0001)     ;
(PID.TID 0000.0001) hFacSup =   /* upper threshold for hFac (nonlinFreeSurf only)*/
(PID.TID 0000.0001)                 2.000000000000000E+00
(PID.TID 0000.0001)     ;
(PID.TID 0000.0001) select_rStar =   /* r* Coordinate options (not yet implemented)*/
(PID.TID 0000.0001)                       0
(PID.TID 0000.0001)     ;
(PID.TID 0000.0001) useRealFreshWaterFlux =   /* Real Fresh Water Flux on/off flag*/
(PID.TID 0000.0001)                   T
(PID.TID 0000.0001)     ;
(PID.TID 0000.0001) convertFW2Salt = /* convert F.W. Flux to Salt Flux (-1=use local S)(ppt)*/
(PID.TID 0000.0001)                -1.000000000000000E+00
(PID.TID 0000.0001)     ;
(PID.TID 0000.0001) use3Dsolver = /* use 3-D pressure solver on/off flag */
(PID.TID 0000.0001)                   F
(PID.TID 0000.0001)     ;
(PID.TID 0000.0001) nonHydrostatic =  /* Non-Hydrostatic on/off flag */
(PID.TID 0000.0001)                   F
(PID.TID 0000.0001)     ;
(PID.TID 0000.0001) nh_Am2 = /* Non-Hydrostatic terms scaling factor */
(PID.TID 0000.0001)                 1.000000000000000E+00
(PID.TID 0000.0001)     ;
(PID.TID 0000.0001) quasiHydrostatic = /* Quasi-Hydrostatic on/off flag */
(PID.TID 0000.0001)                   F
(PID.TID 0000.0001)     ;
(PID.TID 0000.0001) momStepping =  /* Momentum equation on/off flag */
(PID.TID 0000.0001)                   T
(PID.TID 0000.0001)     ;
(PID.TID 0000.0001) vectorInvariantMomentum= /* Vector-Invariant Momentum on/off */
(PID.TID 0000.0001)                   F
(PID.TID 0000.0001)     ;
(PID.TID 0000.0001) momAdvection =  /* Momentum advection on/off flag */
(PID.TID 0000.0001)                   T
(PID.TID 0000.0001)     ;
(PID.TID 0000.0001) momViscosity =  /* Momentum viscosity on/off flag */
(PID.TID 0000.0001)                   T
(PID.TID 0000.0001)     ;
(PID.TID 0000.0001) momImplVertAdv =/* Momentum implicit vert. advection on/off*/
(PID.TID 0000.0001)                   F
(PID.TID 0000.0001)     ;
(PID.TID 0000.0001) implicitViscosity = /* Implicit viscosity on/off flag */
(PID.TID 0000.0001)                   F
(PID.TID 0000.0001)     ;
(PID.TID 0000.0001) metricTerms =  /* metric-Terms on/off flag */
(PID.TID 0000.0001)                   T
(PID.TID 0000.0001)     ;
(PID.TID 0000.0001) useNHMTerms = /* Non-Hydrostatic Metric-Terms on/off */
(PID.TID 0000.0001)                   F
(PID.TID 0000.0001)     ;
(PID.TID 0000.0001) useConstantF =  /* use Constant f0 Coriolis flag */
(PID.TID 0000.0001)                   F
(PID.TID 0000.0001)     ;
(PID.TID 0000.0001) useBetaPlaneF = /* use Beta-Plane Coriolis flag */
(PID.TID 0000.0001)                   F
(PID.TID 0000.0001)     ;
(PID.TID 0000.0001) useSphereF  =   /* use Spherical Coriolis flag */
(PID.TID 0000.0001)                   T
(PID.TID 0000.0001)     ;
(PID.TID 0000.0001) use3dCoriolis = /* 3-D Coriolis on/off flag */
(PID.TID 0000.0001)                   F
(PID.TID 0000.0001)     ;
(PID.TID 0000.0001) useCoriolis =  /* Coriolis on/off flag */
(PID.TID 0000.0001)                   T
(PID.TID 0000.0001)     ;
(PID.TID 0000.0001) useCDscheme =  /* CD scheme on/off flag */
(PID.TID 0000.0001)                   T
(PID.TID 0000.0001)     ;
(PID.TID 0000.0001) useJamartWetPoints= /* Coriolis WetPoints method flag */
(PID.TID 0000.0001)                   F
(PID.TID 0000.0001)     ;
(PID.TID 0000.0001) useJamartMomAdv= /* V.I. Non-linear terms Jamart flag */
(PID.TID 0000.0001)                   F
(PID.TID 0000.0001)     ;
(PID.TID 0000.0001) SadournyCoriolis= /* Sadourny Coriolis discr. flag */
(PID.TID 0000.0001)                   F
(PID.TID 0000.0001)     ;
(PID.TID 0000.0001) upwindVorticity= /* Upwind bias vorticity flag */
(PID.TID 0000.0001)                   F
(PID.TID 0000.0001)     ;
(PID.TID 0000.0001) useAbsVorticity= /* Work with f+zeta in Coriolis */
(PID.TID 0000.0001)                   F
(PID.TID 0000.0001)     ;
(PID.TID 0000.0001) highOrderVorticity= /* High order interp. of vort. flag */
(PID.TID 0000.0001)                   F
(PID.TID 0000.0001)     ;
(PID.TID 0000.0001) upwindShear= /* Upwind vertical Shear advection flag */
(PID.TID 0000.0001)                   F
(PID.TID 0000.0001)     ;
(PID.TID 0000.0001) selectKEscheme= /* Kinetic Energy scheme selector */
(PID.TID 0000.0001)                       0
(PID.TID 0000.0001)     ;
(PID.TID 0000.0001) momForcing =  /* Momentum forcing on/off flag */
(PID.TID 0000.0001)                   T
(PID.TID 0000.0001)     ;
(PID.TID 0000.0001) momPressureForcing =  /* Momentum pressure term on/off flag */
(PID.TID 0000.0001)                   T
(PID.TID 0000.0001)     ;
(PID.TID 0000.0001) implicitIntGravWave= /* Implicit Internal Gravity Wave flag */
(PID.TID 0000.0001)                   F
(PID.TID 0000.0001)     ;
(PID.TID 0000.0001) staggerTimeStep =   /* Stagger time stepping on/off flag */
(PID.TID 0000.0001)                   F
(PID.TID 0000.0001)     ;
(PID.TID 0000.0001) multiDimAdvection =   /* enable/disable Multi-Dim Advection */
(PID.TID 0000.0001)                   T
(PID.TID 0000.0001)     ;
(PID.TID 0000.0001) useMultiDimAdvec =   /* Multi-Dim Advection is/is-not used */
(PID.TID 0000.0001)                   F
(PID.TID 0000.0001)     ;
(PID.TID 0000.0001) implicitDiffusion =/* Implicit Diffusion on/off flag */
(PID.TID 0000.0001)                   T
(PID.TID 0000.0001)     ;
(PID.TID 0000.0001) tempStepping =  /* Temperature equation on/off flag */
(PID.TID 0000.0001)                   T
(PID.TID 0000.0001)     ;
(PID.TID 0000.0001) tempAdvection=  /* Temperature advection on/off flag */
(PID.TID 0000.0001)                   T
(PID.TID 0000.0001)     ;
(PID.TID 0000.0001) tempImplVertAdv =/* Temp. implicit vert. advection on/off */
(PID.TID 0000.0001)                   F
(PID.TID 0000.0001)     ;
(PID.TID 0000.0001) tempForcing  =  /* Temperature forcing on/off flag */
(PID.TID 0000.0001)                   T
(PID.TID 0000.0001)     ;
(PID.TID 0000.0001) saltStepping =  /* Salinity equation on/off flag */
(PID.TID 0000.0001)                   T
(PID.TID 0000.0001)     ;
(PID.TID 0000.0001) saltAdvection=  /* Salinity advection on/off flag */
(PID.TID 0000.0001)                   T
(PID.TID 0000.0001)     ;
(PID.TID 0000.0001) saltImplVertAdv =/* Sali. implicit vert. advection on/off */
(PID.TID 0000.0001)                   F
(PID.TID 0000.0001)     ;
(PID.TID 0000.0001) saltForcing  =  /* Salinity forcing on/off flag */
(PID.TID 0000.0001)                   T
(PID.TID 0000.0001)     ;
(PID.TID 0000.0001)  readBinaryPrec = /* Precision used for reading binary files */
(PID.TID 0000.0001)                      32
(PID.TID 0000.0001)     ;
(PID.TID 0000.0001) writeBinaryPrec = /* Precision used for writing binary files */
(PID.TID 0000.0001)                      32
(PID.TID 0000.0001)     ;
(PID.TID 0000.0001)  globalFiles = /* write "global" (=not per tile) files */
(PID.TID 0000.0001)                   F
(PID.TID 0000.0001)     ;
(PID.TID 0000.0001)  useSingleCpuIO = /* only master MPI process does I/O */
(PID.TID 0000.0001)                   F
(PID.TID 0000.0001)     ;
(PID.TID 0000.0001)  debugMode  =  /* Debug Mode on/off flag */
(PID.TID 0000.0001)                   F
(PID.TID 0000.0001)     ;
(PID.TID 0000.0001)    debLevA  =  /* 1rst level of debugging */
(PID.TID 0000.0001)                       1
(PID.TID 0000.0001)     ;
(PID.TID 0000.0001)    debLevB  =  /* 2nd  level of debugging */
(PID.TID 0000.0001)                       2
(PID.TID 0000.0001)     ;
(PID.TID 0000.0001)  debugLevel =  /* select debugging level */
(PID.TID 0000.0001)                       1
(PID.TID 0000.0001)     ;
(PID.TID 0000.0001) //
(PID.TID 0000.0001) // Elliptic solver(s) paramters ( PARM02 in namelist )
(PID.TID 0000.0001) //
(PID.TID 0000.0001) cg2dMaxIters =   /* Upper limit on 2d con. grad iterations  */
(PID.TID 0000.0001)                     500
(PID.TID 0000.0001)     ;
(PID.TID 0000.0001) cg2dChkResFreq =   /* 2d con. grad convergence test frequency */
(PID.TID 0000.0001)                       1
(PID.TID 0000.0001)     ;
(PID.TID 0000.0001) cg2dTargetResidual =   /* 2d con. grad target residual  */
(PID.TID 0000.0001)                 1.000000000000000E-13
(PID.TID 0000.0001)     ;
(PID.TID 0000.0001) cg2dTargetResWunit =   /* CG2d target residual [W units] */
(PID.TID 0000.0001)                -1.000000000000000E+00
(PID.TID 0000.0001)     ;
(PID.TID 0000.0001) cg2dPreCondFreq =   /* Freq. for updating cg2d preconditioner */
(PID.TID 0000.0001)                       1
(PID.TID 0000.0001)     ;
(PID.TID 0000.0001) //
(PID.TID 0000.0001) // Time stepping paramters ( PARM03 in namelist )
(PID.TID 0000.0001) //
(PID.TID 0000.0001) nIter0 =   /* Run starting timestep number  */
(PID.TID 0000.0001)                       0
(PID.TID 0000.0001)     ;
(PID.TID 0000.0001) nTimeSteps =   /* Number of timesteps */
(PID.TID 0000.0001)                     120
(PID.TID 0000.0001)     ;
(PID.TID 0000.0001) deltaTmom =   /* Momentum equation timestep ( s ) */
(PID.TID 0000.0001)                 1.200000000000000E+03
(PID.TID 0000.0001)     ;
(PID.TID 0000.0001) deltaTfreesurf =   /* FreeSurface equation timestep ( s ) */
(PID.TID 0000.0001)                 1.200000000000000E+03
(PID.TID 0000.0001)     ;
(PID.TID 0000.0001) dTtracerLev =   /* Tracer equation timestep ( s ) */
(PID.TID 0000.0001)    15 @  4.320000000000000E+04              /* K =  1: 15 */
(PID.TID 0000.0001)     ;
(PID.TID 0000.0001) deltaTClock  =   /* Model clock timestep ( s ) */
(PID.TID 0000.0001)                 4.320000000000000E+04
(PID.TID 0000.0001)     ;
(PID.TID 0000.0001) cAdjFreq =   /* Convective adjustment interval ( s ) */
(PID.TID 0000.0001)                 0.000000000000000E+00
(PID.TID 0000.0001)     ;
(PID.TID 0000.0001) momForcingOutAB = /* =1: take Momentum Forcing out of Adams-Bash. stepping */
(PID.TID 0000.0001)                       0
(PID.TID 0000.0001)     ;
(PID.TID 0000.0001) tracForcingOutAB = /* =1: take T,S,pTr Forcing out of Adams-Bash. stepping */
(PID.TID 0000.0001)                       0
(PID.TID 0000.0001)     ;
(PID.TID 0000.0001) momDissip_In_AB = /* put Dissipation Tendency in Adams-Bash. stepping */
(PID.TID 0000.0001)                   T
(PID.TID 0000.0001)     ;
(PID.TID 0000.0001) doAB_onGtGs = /* apply AB on Tendencies (rather than on T,S)*/
(PID.TID 0000.0001)                   T
(PID.TID 0000.0001)     ;
(PID.TID 0000.0001) abEps =   /* Adams-Bashforth-2 stabilizing weight */
(PID.TID 0000.0001)                 1.000000000000000E-01
(PID.TID 0000.0001)     ;
(PID.TID 0000.0001) tauCD =   /* CD coupling time-scale ( s ) */
(PID.TID 0000.0001)                 3.214280000000000E+05
(PID.TID 0000.0001)     ;
(PID.TID 0000.0001) rCD =   /* Normalised CD coupling parameter */
(PID.TID 0000.0001)                 9.962666600296178E-01
(PID.TID 0000.0001)     ;
(PID.TID 0000.0001) baseTime =   /* Model base time ( s ). */
(PID.TID 0000.0001)                 0.000000000000000E+00
(PID.TID 0000.0001)     ;
(PID.TID 0000.0001) startTime =   /* Run start time ( s ). */
(PID.TID 0000.0001)                 0.000000000000000E+00
(PID.TID 0000.0001)     ;
(PID.TID 0000.0001) endTime =   /* Integration ending time ( s ). */
(PID.TID 0000.0001)                 5.184000000000000E+06
(PID.TID 0000.0001)     ;
(PID.TID 0000.0001) pChkPtFreq =   /* Permanent restart/checkpoint file interval ( s ). */
(PID.TID 0000.0001)                 3.110400000000000E+08
(PID.TID 0000.0001)     ;
(PID.TID 0000.0001) chkPtFreq =   /* Rolling restart/checkpoint file interval ( s ). */
(PID.TID 0000.0001)                 0.000000000000000E+00
(PID.TID 0000.0001)     ;
(PID.TID 0000.0001) pickup_write_mdsio =   /* Model IO flag. */
(PID.TID 0000.0001)                   T
(PID.TID 0000.0001)     ;
(PID.TID 0000.0001) pickup_read_mdsio =   /* Model IO flag. */
(PID.TID 0000.0001)                   T
(PID.TID 0000.0001)     ;
(PID.TID 0000.0001) pickup_write_mnc =   /* Model IO flag. */
(PID.TID 0000.0001)                   F
(PID.TID 0000.0001)     ;
(PID.TID 0000.0001) pickup_read_mnc =   /* Model IO flag. */
(PID.TID 0000.0001)                   F
(PID.TID 0000.0001)     ;
(PID.TID 0000.0001) pickup_write_immed =   /* Model IO flag. */
(PID.TID 0000.0001)                   F
(PID.TID 0000.0001)     ;
(PID.TID 0000.0001) dumpFreq =   /* Model state write out interval ( s ). */
(PID.TID 0000.0001)                 8.640000000000000E+05
(PID.TID 0000.0001)     ;
(PID.TID 0000.0001) dumpInitAndLast= /* write out Initial & Last iter. model state */
(PID.TID 0000.0001)                   T
(PID.TID 0000.0001)     ;
(PID.TID 0000.0001) snapshot_mdsio =   /* Model IO flag. */
(PID.TID 0000.0001)                   F
(PID.TID 0000.0001)     ;
(PID.TID 0000.0001) snapshot_mnc =   /* Model IO flag. */
(PID.TID 0000.0001)                   T
(PID.TID 0000.0001)     ;
(PID.TID 0000.0001) monitorFreq =   /* Monitor output interval ( s ). */
(PID.TID 0000.0001)                 1.000000000000000E+00
(PID.TID 0000.0001)     ;
(PID.TID 0000.0001) monitor_stdio =   /* Model IO flag. */
(PID.TID 0000.0001)                   T
(PID.TID 0000.0001)     ;
(PID.TID 0000.0001) monitor_mnc =   /* Model IO flag. */
(PID.TID 0000.0001)                   F
(PID.TID 0000.0001)     ;
(PID.TID 0000.0001) externForcingPeriod =   /* forcing period (s) */
(PID.TID 0000.0001)                 2.592000000000000E+06
(PID.TID 0000.0001)     ;
(PID.TID 0000.0001) externForcingCycle =   /* period of the cyle (s). */
(PID.TID 0000.0001)                 3.110400000000000E+07
(PID.TID 0000.0001)     ;
(PID.TID 0000.0001) tauThetaClimRelax =   /* relaxation time scale (s) */
(PID.TID 0000.0001)                 5.184000000000000E+06
(PID.TID 0000.0001)     ;
(PID.TID 0000.0001) tauSaltClimRelax =   /* relaxation time scale (s) */
(PID.TID 0000.0001)                 1.555200000000000E+07
(PID.TID 0000.0001)     ;
(PID.TID 0000.0001) latBandClimRelax =   /* max. Lat. where relaxation */
(PID.TID 0000.0001)                 1.800000000000000E+02
(PID.TID 0000.0001)     ;
(PID.TID 0000.0001) //
(PID.TID 0000.0001) // Gridding paramters ( PARM04 in namelist )
(PID.TID 0000.0001) //
(PID.TID 0000.0001) usingCartesianGrid =   /* Cartesian coordinates flag ( True / False ) */
(PID.TID 0000.0001)                   F
(PID.TID 0000.0001)     ;
(PID.TID 0000.0001) usingSphericalPolarGrid =   /* Spherical coordinates flag ( True / False ) */
(PID.TID 0000.0001)                   T
(PID.TID 0000.0001)     ;
(PID.TID 0000.0001) usingCylindricalGrid =   /* Spherical coordinates flag ( True / False ) */
(PID.TID 0000.0001)                   F
(PID.TID 0000.0001)     ;
(PID.TID 0000.0001) Ro_SeaLevel =   /* r(1) ( units of r ) */
(PID.TID 0000.0001)                 0.000000000000000E+00
(PID.TID 0000.0001)     ;
(PID.TID 0000.0001) rkSign =   /* index orientation relative to vertical coordinate */
(PID.TID 0000.0001)                -1.000000000000000E+00
(PID.TID 0000.0001)     ;
(PID.TID 0000.0001) horiVertRatio =   /* Ratio on units : Horiz - Vertical */
(PID.TID 0000.0001)                 1.000000000000000E+00
(PID.TID 0000.0001)     ;
(PID.TID 0000.0001) drC =   /* C spacing ( units of r ) */
(PID.TID 0000.0001)                 2.500000000000000E+01,      /* K =  1 */
(PID.TID 0000.0001)                 6.000000000000000E+01,      /* K =  2 */
(PID.TID 0000.0001)                 8.500000000000000E+01,      /* K =  3 */
(PID.TID 0000.0001)                 1.200000000000000E+02,      /* K =  4 */
(PID.TID 0000.0001)                 1.650000000000000E+02,      /* K =  5 */
(PID.TID 0000.0001)                 2.150000000000000E+02,      /* K =  6 */
(PID.TID 0000.0001)                 2.650000000000000E+02,      /* K =  7 */
(PID.TID 0000.0001)                 3.150000000000000E+02,      /* K =  8 */
(PID.TID 0000.0001)                 3.650000000000000E+02,      /* K =  9 */
(PID.TID 0000.0001)                 4.150000000000000E+02,      /* K = 10 */
(PID.TID 0000.0001)                 4.650000000000000E+02,      /* K = 11 */
(PID.TID 0000.0001)                 5.150000000000000E+02,      /* K = 12 */
(PID.TID 0000.0001)                 5.650000000000000E+02,      /* K = 13 */
(PID.TID 0000.0001)                 6.150000000000000E+02,      /* K = 14 */
(PID.TID 0000.0001)                 6.650000000000000E+02       /* K = 15 */
(PID.TID 0000.0001)     ;
(PID.TID 0000.0001) drF =   /* W spacing ( units of r ) */
(PID.TID 0000.0001)                 5.000000000000000E+01,      /* K =  1 */
(PID.TID 0000.0001)                 7.000000000000000E+01,      /* K =  2 */
(PID.TID 0000.0001)                 1.000000000000000E+02,      /* K =  3 */
(PID.TID 0000.0001)                 1.400000000000000E+02,      /* K =  4 */
(PID.TID 0000.0001)                 1.900000000000000E+02,      /* K =  5 */
(PID.TID 0000.0001)                 2.400000000000000E+02,      /* K =  6 */
(PID.TID 0000.0001)                 2.900000000000000E+02,      /* K =  7 */
(PID.TID 0000.0001)                 3.400000000000000E+02,      /* K =  8 */
(PID.TID 0000.0001)                 3.900000000000000E+02,      /* K =  9 */
(PID.TID 0000.0001)                 4.400000000000000E+02,      /* K = 10 */
(PID.TID 0000.0001)                 4.900000000000000E+02,      /* K = 11 */
(PID.TID 0000.0001)                 5.400000000000000E+02,      /* K = 12 */
(PID.TID 0000.0001)                 5.900000000000000E+02,      /* K = 13 */
(PID.TID 0000.0001)                 6.400000000000000E+02,      /* K = 14 */
(PID.TID 0000.0001)                 6.900000000000000E+02       /* K = 15 */
(PID.TID 0000.0001)     ;
(PID.TID 0000.0001) delX =   /* U spacing ( m - cartesian, degrees - spherical ) */
(PID.TID 0000.0001)    90 @  4.000000000000000E+00              /* I =  1: 90 */
(PID.TID 0000.0001)     ;
(PID.TID 0000.0001) delY =   /* V spacing ( m - cartesian, degrees - spherical ) */
(PID.TID 0000.0001)    40 @  4.000000000000000E+00              /* J =  1: 40 */
(PID.TID 0000.0001)     ;
(PID.TID 0000.0001) phiMin =    /* South edge (ignored - cartesian, degrees - spherical ) */
(PID.TID 0000.0001)                -8.000000000000000E+01
(PID.TID 0000.0001)     ;
(PID.TID 0000.0001) thetaMin =    /* West edge ( ignored - cartesian, degrees - spherical ) */
(PID.TID 0000.0001)                 0.000000000000000E+00
(PID.TID 0000.0001)     ;
(PID.TID 0000.0001) rSphere =    /* Radius ( ignored - cartesian, m - spherical ) */
(PID.TID 0000.0001)                 6.370000000000000E+06
(PID.TID 0000.0001)     ;
(PID.TID 0000.0001) xcoord =   /* P-point X coord ( m - cartesian, degrees - spherical ) */
(PID.TID 0000.0001)                 2.000000000000000E+00,      /* I =  1 */
(PID.TID 0000.0001)                 6.000000000000000E+00,      /* I =  2 */
(PID.TID 0000.0001)                 1.000000000000000E+01,      /* I =  3 */
(PID.TID 0000.0001)                 1.400000000000000E+01,      /* I =  4 */
(PID.TID 0000.0001)                 1.800000000000000E+01,      /* I =  5 */
(PID.TID 0000.0001)                 2.200000000000000E+01,      /* I =  6 */
(PID.TID 0000.0001)                 2.600000000000000E+01,      /* I =  7 */
(PID.TID 0000.0001)                 3.000000000000000E+01,      /* I =  8 */
(PID.TID 0000.0001)                 3.400000000000000E+01,      /* I =  9 */
(PID.TID 0000.0001)                 3.800000000000000E+01,      /* I = 10 */
(PID.TID 0000.0001)                 4.200000000000000E+01,      /* I = 11 */
(PID.TID 0000.0001)                 4.600000000000000E+01,      /* I = 12 */
(PID.TID 0000.0001)                 5.000000000000000E+01,      /* I = 13 */
(PID.TID 0000.0001)                 5.400000000000000E+01,      /* I = 14 */
(PID.TID 0000.0001)                 5.800000000000000E+01,      /* I = 15 */
(PID.TID 0000.0001)                 6.200000000000000E+01,      /* I = 16 */
(PID.TID 0000.0001)                 6.600000000000000E+01,      /* I = 17 */
(PID.TID 0000.0001)                 7.000000000000000E+01,      /* I = 18 */
(PID.TID 0000.0001)                 7.400000000000000E+01,      /* I = 19 */
(PID.TID 0000.0001)                 7.800000000000000E+01,      /* I = 20 */
(PID.TID 0000.0001)                 8.200000000000000E+01,      /* I = 21 */
(PID.TID 0000.0001)                 8.600000000000000E+01,      /* I = 22 */
(PID.TID 0000.0001)                 9.000000000000000E+01,      /* I = 23 */
(PID.TID 0000.0001)                 9.400000000000000E+01,      /* I = 24 */
(PID.TID 0000.0001)                 9.800000000000000E+01,      /* I = 25 */
(PID.TID 0000.0001)                 1.020000000000000E+02,      /* I = 26 */
(PID.TID 0000.0001)                 1.060000000000000E+02,      /* I = 27 */
(PID.TID 0000.0001)                 1.100000000000000E+02,      /* I = 28 */
(PID.TID 0000.0001)                 1.140000000000000E+02,      /* I = 29 */
(PID.TID 0000.0001)                 1.180000000000000E+02,      /* I = 30 */
(PID.TID 0000.0001)                 1.220000000000000E+02,      /* I = 31 */
(PID.TID 0000.0001)                 1.260000000000000E+02,      /* I = 32 */
(PID.TID 0000.0001)                 1.300000000000000E+02,      /* I = 33 */
(PID.TID 0000.0001)                 1.340000000000000E+02,      /* I = 34 */
(PID.TID 0000.0001)                 1.380000000000000E+02,      /* I = 35 */
(PID.TID 0000.0001)                 1.420000000000000E+02,      /* I = 36 */
(PID.TID 0000.0001)                 1.460000000000000E+02,      /* I = 37 */
(PID.TID 0000.0001)                 1.500000000000000E+02,      /* I = 38 */
(PID.TID 0000.0001)                 1.540000000000000E+02,      /* I = 39 */
(PID.TID 0000.0001)                 1.580000000000000E+02,      /* I = 40 */
(PID.TID 0000.0001)                 1.620000000000000E+02,      /* I = 41 */
(PID.TID 0000.0001)                 1.660000000000000E+02,      /* I = 42 */
(PID.TID 0000.0001)                 1.700000000000000E+02,      /* I = 43 */
(PID.TID 0000.0001)                 1.740000000000000E+02,      /* I = 44 */
(PID.TID 0000.0001)                 1.780000000000000E+02,      /* I = 45 */
(PID.TID 0000.0001)                 1.820000000000000E+02,      /* I = 46 */
(PID.TID 0000.0001)                 1.860000000000000E+02,      /* I = 47 */
(PID.TID 0000.0001)                 1.900000000000000E+02,      /* I = 48 */
(PID.TID 0000.0001)                 1.940000000000000E+02,      /* I = 49 */
(PID.TID 0000.0001)                 1.980000000000000E+02,      /* I = 50 */
(PID.TID 0000.0001)                 2.020000000000000E+02,      /* I = 51 */
(PID.TID 0000.0001)                 2.060000000000000E+02,      /* I = 52 */
(PID.TID 0000.0001)                 2.100000000000000E+02,      /* I = 53 */
(PID.TID 0000.0001)                 2.140000000000000E+02,      /* I = 54 */
(PID.TID 0000.0001)                 2.180000000000000E+02,      /* I = 55 */
(PID.TID 0000.0001)                 2.220000000000000E+02,      /* I = 56 */
(PID.TID 0000.0001)                 2.260000000000000E+02,      /* I = 57 */
(PID.TID 0000.0001)                 2.300000000000000E+02,      /* I = 58 */
(PID.TID 0000.0001)                 2.340000000000000E+02,      /* I = 59 */
(PID.TID 0000.0001)                 2.380000000000000E+02,      /* I = 60 */
(PID.TID 0000.0001)                 2.420000000000000E+02,      /* I = 61 */
(PID.TID 0000.0001)                 2.460000000000000E+02,      /* I = 62 */
(PID.TID 0000.0001)                 2.500000000000000E+02,      /* I = 63 */
(PID.TID 0000.0001)                 2.540000000000000E+02,      /* I = 64 */
(PID.TID 0000.0001)                 2.580000000000000E+02,      /* I = 65 */
(PID.TID 0000.0001)                 2.620000000000000E+02,      /* I = 66 */
(PID.TID 0000.0001)                 2.660000000000000E+02,      /* I = 67 */
(PID.TID 0000.0001)                 2.700000000000000E+02,      /* I = 68 */
(PID.TID 0000.0001)                 2.740000000000000E+02,      /* I = 69 */
(PID.TID 0000.0001)                 2.780000000000000E+02,      /* I = 70 */
(PID.TID 0000.0001)                 2.820000000000000E+02,      /* I = 71 */
(PID.TID 0000.0001)                 2.860000000000000E+02,      /* I = 72 */
(PID.TID 0000.0001)                 2.900000000000000E+02,      /* I = 73 */
(PID.TID 0000.0001)                 2.940000000000000E+02,      /* I = 74 */
(PID.TID 0000.0001)                 2.980000000000000E+02,      /* I = 75 */
(PID.TID 0000.0001)                 3.020000000000000E+02,      /* I = 76 */
(PID.TID 0000.0001)                 3.060000000000000E+02,      /* I = 77 */
(PID.TID 0000.0001)                 3.100000000000000E+02,      /* I = 78 */
(PID.TID 0000.0001)                 3.140000000000000E+02,      /* I = 79 */
(PID.TID 0000.0001)                 3.180000000000000E+02,      /* I = 80 */
(PID.TID 0000.0001)                 3.220000000000000E+02,      /* I = 81 */
(PID.TID 0000.0001)                 3.260000000000000E+02,      /* I = 82 */
(PID.TID 0000.0001)                 3.300000000000000E+02,      /* I = 83 */
(PID.TID 0000.0001)                 3.340000000000000E+02,      /* I = 84 */
(PID.TID 0000.0001)                 3.380000000000000E+02,      /* I = 85 */
(PID.TID 0000.0001)                 3.420000000000000E+02,      /* I = 86 */
(PID.TID 0000.0001)                 3.460000000000000E+02,      /* I = 87 */
(PID.TID 0000.0001)                 3.500000000000000E+02,      /* I = 88 */
(PID.TID 0000.0001)                 3.540000000000000E+02,      /* I = 89 */
(PID.TID 0000.0001)                 3.580000000000000E+02       /* I = 90 */
(PID.TID 0000.0001)     ;
(PID.TID 0000.0001) ycoord =   /* P-point Y coord ( m - cartesian, degrees - spherical ) */
(PID.TID 0000.0001)                -7.800000000000000E+01,      /* J =  1 */
(PID.TID 0000.0001)                -7.400000000000000E+01,      /* J =  2 */
(PID.TID 0000.0001)                -7.000000000000000E+01,      /* J =  3 */
(PID.TID 0000.0001)                -6.600000000000000E+01,      /* J =  4 */
(PID.TID 0000.0001)                -6.200000000000000E+01,      /* J =  5 */
(PID.TID 0000.0001)                -5.800000000000000E+01,      /* J =  6 */
(PID.TID 0000.0001)                -5.400000000000000E+01,      /* J =  7 */
(PID.TID 0000.0001)                -5.000000000000000E+01,      /* J =  8 */
(PID.TID 0000.0001)                -4.600000000000000E+01,      /* J =  9 */
(PID.TID 0000.0001)                -4.200000000000000E+01,      /* J = 10 */
(PID.TID 0000.0001)                -3.800000000000000E+01,      /* J = 11 */
(PID.TID 0000.0001)                -3.400000000000000E+01,      /* J = 12 */
(PID.TID 0000.0001)                -3.000000000000000E+01,      /* J = 13 */
(PID.TID 0000.0001)                -2.600000000000000E+01,      /* J = 14 */
(PID.TID 0000.0001)                -2.200000000000000E+01,      /* J = 15 */
(PID.TID 0000.0001)                -1.800000000000000E+01,      /* J = 16 */
(PID.TID 0000.0001)                -1.400000000000000E+01,      /* J = 17 */
(PID.TID 0000.0001)                -1.000000000000000E+01,      /* J = 18 */
(PID.TID 0000.0001)                -6.000000000000000E+00,      /* J = 19 */
(PID.TID 0000.0001)                -2.000000000000000E+00,      /* J = 20 */
(PID.TID 0000.0001)                 2.000000000000000E+00,      /* J = 21 */
(PID.TID 0000.0001)                 6.000000000000000E+00,      /* J = 22 */
(PID.TID 0000.0001)                 1.000000000000000E+01,      /* J = 23 */
(PID.TID 0000.0001)                 1.400000000000000E+01,      /* J = 24 */
(PID.TID 0000.0001)                 1.800000000000000E+01,      /* J = 25 */
(PID.TID 0000.0001)                 2.200000000000000E+01,      /* J = 26 */
(PID.TID 0000.0001)                 2.600000000000000E+01,      /* J = 27 */
(PID.TID 0000.0001)                 3.000000000000000E+01,      /* J = 28 */
(PID.TID 0000.0001)                 3.400000000000000E+01,      /* J = 29 */
(PID.TID 0000.0001)                 3.800000000000000E+01,      /* J = 30 */
(PID.TID 0000.0001)                 4.200000000000000E+01,      /* J = 31 */
(PID.TID 0000.0001)                 4.600000000000000E+01,      /* J = 32 */
(PID.TID 0000.0001)                 5.000000000000000E+01,      /* J = 33 */
(PID.TID 0000.0001)                 5.400000000000000E+01,      /* J = 34 */
(PID.TID 0000.0001)                 5.800000000000000E+01,      /* J = 35 */
(PID.TID 0000.0001)                 6.200000000000000E+01,      /* J = 36 */
(PID.TID 0000.0001)                 6.600000000000000E+01,      /* J = 37 */
(PID.TID 0000.0001)                 7.000000000000000E+01,      /* J = 38 */
(PID.TID 0000.0001)                 7.400000000000000E+01,      /* J = 39 */
(PID.TID 0000.0001)                 7.800000000000000E+01       /* J = 40 */
(PID.TID 0000.0001)     ;
(PID.TID 0000.0001) rcoord =   /* P-point R coordinate (  units of r ) */
(PID.TID 0000.0001)                -2.500000000000000E+01,      /* K =  1 */
(PID.TID 0000.0001)                -8.500000000000000E+01,      /* K =  2 */
(PID.TID 0000.0001)                -1.700000000000000E+02,      /* K =  3 */
(PID.TID 0000.0001)                -2.900000000000000E+02,      /* K =  4 */
(PID.TID 0000.0001)                -4.550000000000000E+02,      /* K =  5 */
(PID.TID 0000.0001)                -6.700000000000000E+02,      /* K =  6 */
(PID.TID 0000.0001)                -9.350000000000000E+02,      /* K =  7 */
(PID.TID 0000.0001)                -1.250000000000000E+03,      /* K =  8 */
(PID.TID 0000.0001)                -1.615000000000000E+03,      /* K =  9 */
(PID.TID 0000.0001)                -2.030000000000000E+03,      /* K = 10 */
(PID.TID 0000.0001)                -2.495000000000000E+03,      /* K = 11 */
(PID.TID 0000.0001)                -3.010000000000000E+03,      /* K = 12 */
(PID.TID 0000.0001)                -3.575000000000000E+03,      /* K = 13 */
(PID.TID 0000.0001)                -4.190000000000000E+03,      /* K = 14 */
(PID.TID 0000.0001)                -4.855000000000000E+03       /* K = 15 */
(PID.TID 0000.0001)     ;
(PID.TID 0000.0001) rF =   /* W-Interf. R coordinate (  units of r ) */
(PID.TID 0000.0001)                 0.000000000000000E+00,      /* K =  1 */
(PID.TID 0000.0001)                -5.000000000000000E+01,      /* K =  2 */
(PID.TID 0000.0001)                -1.200000000000000E+02,      /* K =  3 */
(PID.TID 0000.0001)                -2.200000000000000E+02,      /* K =  4 */
(PID.TID 0000.0001)                -3.600000000000000E+02,      /* K =  5 */
(PID.TID 0000.0001)                -5.500000000000000E+02,      /* K =  6 */
(PID.TID 0000.0001)                -7.900000000000000E+02,      /* K =  7 */
(PID.TID 0000.0001)                -1.080000000000000E+03,      /* K =  8 */
(PID.TID 0000.0001)                -1.420000000000000E+03,      /* K =  9 */
(PID.TID 0000.0001)                -1.810000000000000E+03,      /* K = 10 */
(PID.TID 0000.0001)                -2.250000000000000E+03,      /* K = 11 */
(PID.TID 0000.0001)                -2.740000000000000E+03,      /* K = 12 */
(PID.TID 0000.0001)                -3.280000000000000E+03,      /* K = 13 */
(PID.TID 0000.0001)                -3.870000000000000E+03,      /* K = 14 */
(PID.TID 0000.0001)                -4.510000000000000E+03,      /* K = 15 */
(PID.TID 0000.0001)                -5.200000000000000E+03       /* K = 16 */
(PID.TID 0000.0001)     ;
(PID.TID 0000.0001) dBdrRef = /* Vertical gradient of reference boyancy [(m/s/r)^2)] */
(PID.TID 0000.0001)    15 @  0.000000000000000E+00              /* K =  1: 15 */
(PID.TID 0000.0001)     ;
(PID.TID 0000.0001) dxF =  /* dxF(:,1,:,1) ( units: m ) */
(PID.TID 0000.0001)    90 @  9.246038586187513E+04              /* I =  1: 90 */
(PID.TID 0000.0001)     ;
(PID.TID 0000.0001) dxF =  /* dxF(1,:,1,:) ( units: m ) */
(PID.TID 0000.0001)                 9.246038586187513E+04,      /* J =  1 */
(PID.TID 0000.0001)                 1.225786591246834E+05,      /* J =  2 */
(PID.TID 0000.0001)                 1.520997414818001E+05,      /* J =  3 */
(PID.TID 0000.0001)                 1.808798091874300E+05,      /* J =  4 */
(PID.TID 0000.0001)                 2.087786486446736E+05,      /* J =  5 */
(PID.TID 0000.0001)                 2.356603395120765E+05,      /* J =  6 */
(PID.TID 0000.0001)                 2.613939168938713E+05,      /* J =  7 */
(PID.TID 0000.0001)                 2.858540093877838E+05,      /* J =  8 */
(PID.TID 0000.0001)                 3.089214498819034E+05,      /* J =  9 */
(PID.TID 0000.0001)                 3.304838561248741E+05,      /* J = 10 */
(PID.TID 0000.0001)                 3.504361782409254E+05,      /* J = 11 */
(PID.TID 0000.0001)                 3.686812105223082E+05,      /* J = 12 */
(PID.TID 0000.0001)                 3.851300650057323E+05,      /* J = 13 */
(PID.TID 0000.0001)                 3.997026045255871E+05,      /* J = 14 */
(PID.TID 0000.0001)                 4.123278331341585E+05,      /* J = 15 */
(PID.TID 0000.0001)                 4.229442419867491E+05,      /* J = 16 */
(PID.TID 0000.0001)                 4.315001090065870E+05,      /* J = 17 */
(PID.TID 0000.0001)                 4.379537508695838E+05,      /* J = 18 */
(PID.TID 0000.0001)                 4.422737260813012E+05,      /* J = 19 */
(PID.TID 0000.0001)     2 @  4.444389881567502E+05,             /* J = 20: 21 */
(PID.TID 0000.0001)                 4.422737260813012E+05,      /* J = 22 */
(PID.TID 0000.0001)                 4.379537508695838E+05,      /* J = 23 */
(PID.TID 0000.0001)                 4.315001090065870E+05,      /* J = 24 */
(PID.TID 0000.0001)                 4.229442419867491E+05,      /* J = 25 */
(PID.TID 0000.0001)                 4.123278331341585E+05,      /* J = 26 */
(PID.TID 0000.0001)                 3.997026045255871E+05,      /* J = 27 */
(PID.TID 0000.0001)                 3.851300650057323E+05,      /* J = 28 */
(PID.TID 0000.0001)                 3.686812105223082E+05,      /* J = 29 */
(PID.TID 0000.0001)                 3.504361782409254E+05,      /* J = 30 */
(PID.TID 0000.0001)                 3.304838561248741E+05,      /* J = 31 */
(PID.TID 0000.0001)                 3.089214498819034E+05,      /* J = 32 */
(PID.TID 0000.0001)                 2.858540093877838E+05,      /* J = 33 */
(PID.TID 0000.0001)                 2.613939168938713E+05,      /* J = 34 */
(PID.TID 0000.0001)                 2.356603395120765E+05,      /* J = 35 */
(PID.TID 0000.0001)                 2.087786486446736E+05,      /* J = 36 */
(PID.TID 0000.0001)                 1.808798091874300E+05,      /* J = 37 */
(PID.TID 0000.0001)                 1.520997414818001E+05,      /* J = 38 */
(PID.TID 0000.0001)                 1.225786591246834E+05,      /* J = 39 */
(PID.TID 0000.0001)                 9.246038586187513E+04       /* J = 40 */
(PID.TID 0000.0001)     ;
(PID.TID 0000.0001) dyF =  /* dyF(:,1,:,1) ( units: m ) */
(PID.TID 0000.0001)    90 @  4.447098934081552E+05              /* I =  1: 90 */
(PID.TID 0000.0001)     ;
(PID.TID 0000.0001) dyF =  /* dyF(1,:,1,:) ( units: m ) */
(PID.TID 0000.0001)    40 @  4.447098934081552E+05              /* J =  1: 40 */
(PID.TID 0000.0001)     ;
(PID.TID 0000.0001) dxG =  /* dxG(:,1,:,1) ( units: m ) */
(PID.TID 0000.0001)    90 @  7.722306258078101E+04              /* I =  1: 90 */
(PID.TID 0000.0001)     ;
(PID.TID 0000.0001) dxG =  /* dxG(1,:,1,:) ( units: m ) */
(PID.TID 0000.0001)                 7.722306258078101E+04,      /* J =  1 */
(PID.TID 0000.0001)                 1.075850604052271E+05,      /* J =  2 */
(PID.TID 0000.0001)                 1.374229146297914E+05,      /* J =  3 */
(PID.TID 0000.0001)                 1.665912582279823E+05,      /* J =  4 */
(PID.TID 0000.0001)                 1.949479859617814E+05,      /* J =  5 */
(PID.TID 0000.0001)                 2.223549467040777E+05,      /* J =  6 */
(PID.TID 0000.0001)                 2.486786164970726E+05,      /* J =  7 */
(PID.TID 0000.0001)                 2.737907490675810E+05,      /* J =  8 */
(PID.TID 0000.0001)                 2.975690006299821E+05,      /* J =  9 */
(PID.TID 0000.0001)                 3.198975259328452E+05,      /* J = 10 */
(PID.TID 0000.0001)                 3.406675426453503E+05,      /* J = 11 */
(PID.TID 0000.0001)                 3.597778613338690E+05,      /* J = 12 */
(PID.TID 0000.0001)                 3.771353784467131E+05,      /* J = 13 */
(PID.TID 0000.0001)                 3.926555299052806E+05,      /* J = 14 */
(PID.TID 0000.0001)                 4.062627030917454E+05,      /* J = 15 */
(PID.TID 0000.0001)                 4.178906052261313E+05,      /* J = 16 */
(PID.TID 0000.0001)                 4.274825863380723E+05,      /* J = 17 */
(PID.TID 0000.0001)                 4.349919152597734E+05,      /* J = 18 */
(PID.TID 0000.0001)                 4.403820072955634E+05,      /* J = 19 */
(PID.TID 0000.0001)                 4.436266024588540E+05,      /* J = 20 */
(PID.TID 0000.0001)                 4.447098934081552E+05,      /* J = 21 */
(PID.TID 0000.0001)                 4.436266024588540E+05,      /* J = 22 */
(PID.TID 0000.0001)                 4.403820072955634E+05,      /* J = 23 */
(PID.TID 0000.0001)                 4.349919152597734E+05,      /* J = 24 */
(PID.TID 0000.0001)                 4.274825863380723E+05,      /* J = 25 */
(PID.TID 0000.0001)                 4.178906052261313E+05,      /* J = 26 */
(PID.TID 0000.0001)                 4.062627030917454E+05,      /* J = 27 */
(PID.TID 0000.0001)                 3.926555299052806E+05,      /* J = 28 */
(PID.TID 0000.0001)                 3.771353784467131E+05,      /* J = 29 */
(PID.TID 0000.0001)                 3.597778613338690E+05,      /* J = 30 */
(PID.TID 0000.0001)                 3.406675426453503E+05,      /* J = 31 */
(PID.TID 0000.0001)                 3.198975259328452E+05,      /* J = 32 */
(PID.TID 0000.0001)                 2.975690006299821E+05,      /* J = 33 */
(PID.TID 0000.0001)                 2.737907490675810E+05,      /* J = 34 */
(PID.TID 0000.0001)                 2.486786164970726E+05,      /* J = 35 */
(PID.TID 0000.0001)                 2.223549467040777E+05,      /* J = 36 */
(PID.TID 0000.0001)                 1.949479859617814E+05,      /* J = 37 */
(PID.TID 0000.0001)                 1.665912582279823E+05,      /* J = 38 */
(PID.TID 0000.0001)                 1.374229146297914E+05,      /* J = 39 */
(PID.TID 0000.0001)                 1.075850604052271E+05       /* J = 40 */
(PID.TID 0000.0001)     ;
(PID.TID 0000.0001) dyG =  /* dyG(:,1,:,1) ( units: m ) */
(PID.TID 0000.0001)    90 @  4.447098934081552E+05              /* I =  1: 90 */
(PID.TID 0000.0001)     ;
(PID.TID 0000.0001) dyG =  /* dyG(1,:,1,:) ( units: m ) */
(PID.TID 0000.0001)    40 @  4.447098934081552E+05              /* J =  1: 40 */
(PID.TID 0000.0001)     ;
(PID.TID 0000.0001) dxC =  /* dxC(:,1,:,1) ( units: m ) */
(PID.TID 0000.0001)    90 @  9.246038586187513E+04              /* I =  1: 90 */
(PID.TID 0000.0001)     ;
(PID.TID 0000.0001) dxC =  /* dxC(1,:,1,:) ( units: m ) */
(PID.TID 0000.0001)                 9.246038586187513E+04,      /* J =  1 */
(PID.TID 0000.0001)                 1.225786591246834E+05,      /* J =  2 */
(PID.TID 0000.0001)                 1.520997414818001E+05,      /* J =  3 */
(PID.TID 0000.0001)                 1.808798091874300E+05,      /* J =  4 */
(PID.TID 0000.0001)                 2.087786486446736E+05,      /* J =  5 */
(PID.TID 0000.0001)                 2.356603395120765E+05,      /* J =  6 */
(PID.TID 0000.0001)                 2.613939168938713E+05,      /* J =  7 */
(PID.TID 0000.0001)                 2.858540093877838E+05,      /* J =  8 */
(PID.TID 0000.0001)                 3.089214498819034E+05,      /* J =  9 */
(PID.TID 0000.0001)                 3.304838561248741E+05,      /* J = 10 */
(PID.TID 0000.0001)                 3.504361782409254E+05,      /* J = 11 */
(PID.TID 0000.0001)                 3.686812105223082E+05,      /* J = 12 */
(PID.TID 0000.0001)                 3.851300650057323E+05,      /* J = 13 */
(PID.TID 0000.0001)                 3.997026045255871E+05,      /* J = 14 */
(PID.TID 0000.0001)                 4.123278331341585E+05,      /* J = 15 */
(PID.TID 0000.0001)                 4.229442419867491E+05,      /* J = 16 */
(PID.TID 0000.0001)                 4.315001090065870E+05,      /* J = 17 */
(PID.TID 0000.0001)                 4.379537508695838E+05,      /* J = 18 */
(PID.TID 0000.0001)                 4.422737260813012E+05,      /* J = 19 */
(PID.TID 0000.0001)     2 @  4.444389881567502E+05,             /* J = 20: 21 */
(PID.TID 0000.0001)                 4.422737260813012E+05,      /* J = 22 */
(PID.TID 0000.0001)                 4.379537508695838E+05,      /* J = 23 */
(PID.TID 0000.0001)                 4.315001090065870E+05,      /* J = 24 */
(PID.TID 0000.0001)                 4.229442419867491E+05,      /* J = 25 */
(PID.TID 0000.0001)                 4.123278331341585E+05,      /* J = 26 */
(PID.TID 0000.0001)                 3.997026045255871E+05,      /* J = 27 */
(PID.TID 0000.0001)                 3.851300650057323E+05,      /* J = 28 */
(PID.TID 0000.0001)                 3.686812105223082E+05,      /* J = 29 */
(PID.TID 0000.0001)                 3.504361782409254E+05,      /* J = 30 */
(PID.TID 0000.0001)                 3.304838561248741E+05,      /* J = 31 */
(PID.TID 0000.0001)                 3.089214498819034E+05,      /* J = 32 */
(PID.TID 0000.0001)                 2.858540093877838E+05,      /* J = 33 */
(PID.TID 0000.0001)                 2.613939168938713E+05,      /* J = 34 */
(PID.TID 0000.0001)                 2.356603395120765E+05,      /* J = 35 */
(PID.TID 0000.0001)                 2.087786486446736E+05,      /* J = 36 */
(PID.TID 0000.0001)                 1.808798091874300E+05,      /* J = 37 */
(PID.TID 0000.0001)                 1.520997414818001E+05,      /* J = 38 */
(PID.TID 0000.0001)                 1.225786591246834E+05,      /* J = 39 */
(PID.TID 0000.0001)                 9.246038586187513E+04       /* J = 40 */
(PID.TID 0000.0001)     ;
(PID.TID 0000.0001) dyC =  /* dyC(:,1,:,1) ( units: m ) */
(PID.TID 0000.0001)    90 @  4.447098934081552E+05              /* I =  1: 90 */
(PID.TID 0000.0001)     ;
(PID.TID 0000.0001) dyC =  /* dyC(1,:,1,:) ( units: m ) */
(PID.TID 0000.0001)    40 @  4.447098934081552E+05              /* J =  1: 40 */
(PID.TID 0000.0001)     ;
(PID.TID 0000.0001) dxV =  /* dxV(:,1,:,1) ( units: m ) */
(PID.TID 0000.0001)    90 @  7.722306258078101E+04              /* I =  1: 90 */
(PID.TID 0000.0001)     ;
(PID.TID 0000.0001) dxV =  /* dxV(1,:,1,:) ( units: m ) */
(PID.TID 0000.0001)                 7.722306258078101E+04,      /* J =  1 */
(PID.TID 0000.0001)                 1.075850604052271E+05,      /* J =  2 */
(PID.TID 0000.0001)                 1.374229146297914E+05,      /* J =  3 */
(PID.TID 0000.0001)                 1.665912582279823E+05,      /* J =  4 */
(PID.TID 0000.0001)                 1.949479859617814E+05,      /* J =  5 */
(PID.TID 0000.0001)                 2.223549467040777E+05,      /* J =  6 */
(PID.TID 0000.0001)                 2.486786164970726E+05,      /* J =  7 */
(PID.TID 0000.0001)                 2.737907490675810E+05,      /* J =  8 */
(PID.TID 0000.0001)                 2.975690006299821E+05,      /* J =  9 */
(PID.TID 0000.0001)                 3.198975259328452E+05,      /* J = 10 */
(PID.TID 0000.0001)                 3.406675426453503E+05,      /* J = 11 */
(PID.TID 0000.0001)                 3.597778613338690E+05,      /* J = 12 */
(PID.TID 0000.0001)                 3.771353784467131E+05,      /* J = 13 */
(PID.TID 0000.0001)                 3.926555299052806E+05,      /* J = 14 */
(PID.TID 0000.0001)                 4.062627030917454E+05,      /* J = 15 */
(PID.TID 0000.0001)                 4.178906052261313E+05,      /* J = 16 */
(PID.TID 0000.0001)                 4.274825863380723E+05,      /* J = 17 */
(PID.TID 0000.0001)                 4.349919152597734E+05,      /* J = 18 */
(PID.TID 0000.0001)                 4.403820072955634E+05,      /* J = 19 */
(PID.TID 0000.0001)                 4.436266024588540E+05,      /* J = 20 */
(PID.TID 0000.0001)                 4.447098934081552E+05,      /* J = 21 */
(PID.TID 0000.0001)                 4.436266024588540E+05,      /* J = 22 */
(PID.TID 0000.0001)                 4.403820072955634E+05,      /* J = 23 */
(PID.TID 0000.0001)                 4.349919152597734E+05,      /* J = 24 */
(PID.TID 0000.0001)                 4.274825863380723E+05,      /* J = 25 */
(PID.TID 0000.0001)                 4.178906052261313E+05,      /* J = 26 */
(PID.TID 0000.0001)                 4.062627030917454E+05,      /* J = 27 */
(PID.TID 0000.0001)                 3.926555299052806E+05,      /* J = 28 */
(PID.TID 0000.0001)                 3.771353784467131E+05,      /* J = 29 */
(PID.TID 0000.0001)                 3.597778613338690E+05,      /* J = 30 */
(PID.TID 0000.0001)                 3.406675426453503E+05,      /* J = 31 */
(PID.TID 0000.0001)                 3.198975259328452E+05,      /* J = 32 */
(PID.TID 0000.0001)                 2.975690006299821E+05,      /* J = 33 */
(PID.TID 0000.0001)                 2.737907490675810E+05,      /* J = 34 */
(PID.TID 0000.0001)                 2.486786164970726E+05,      /* J = 35 */
(PID.TID 0000.0001)                 2.223549467040777E+05,      /* J = 36 */
(PID.TID 0000.0001)                 1.949479859617814E+05,      /* J = 37 */
(PID.TID 0000.0001)                 1.665912582279823E+05,      /* J = 38 */
(PID.TID 0000.0001)                 1.374229146297914E+05,      /* J = 39 */
(PID.TID 0000.0001)                 1.075850604052271E+05       /* J = 40 */
(PID.TID 0000.0001)     ;
(PID.TID 0000.0001) dyU =  /* dyU(:,1,:,1) ( units: m ) */
(PID.TID 0000.0001)    90 @  4.447098934081552E+05              /* I =  1: 90 */
(PID.TID 0000.0001)     ;
(PID.TID 0000.0001) dyU =  /* dyU(1,:,1,:) ( units: m ) */
(PID.TID 0000.0001)    40 @  4.447098934081552E+05              /* J =  1: 40 */
(PID.TID 0000.0001)     ;
(PID.TID 0000.0001) rA  =  /* rA (:,1,:,1) ( units: m^2 ) */
(PID.TID 0000.0001)    90 @  4.110969866729047E+10              /* I =  1: 90 */
(PID.TID 0000.0001)     ;
(PID.TID 0000.0001) rA  =  /* rA (1,:,1,:) ( units: m^2 ) */
(PID.TID 0000.0001)                 4.110969866729047E+10,      /* J =  1 */
(PID.TID 0000.0001)                 5.450087291636665E+10,      /* J =  2 */
(PID.TID 0000.0001)                 6.762652439100235E+10,      /* J =  3 */
(PID.TID 0000.0001)                 8.042270623659998E+10,      /* J =  4 */
(PID.TID 0000.0001)                 9.282707674147523E+10,      /* J =  5 */
(PID.TID 0000.0001)                 1.047792030594103E+11,      /* J =  6 */
(PID.TID 0000.0001)                 1.162208556324093E+11,      /* J =  7 */
(PID.TID 0000.0001)                 1.270962918792468E+11,      /* J =  8 */
(PID.TID 0000.0001)                 1.373525277677229E+11,      /* J =  9 */
(PID.TID 0000.0001)                 1.469395959475426E+11,      /* J = 10 */
(PID.TID 0000.0001)                 1.558107891862220E+11,      /* J = 11 */
(PID.TID 0000.0001)                 1.639228879220326E+11,      /* J = 12 */
(PID.TID 0000.0001)                 1.712363708253573E+11,      /* J = 13 */
(PID.TID 0000.0001)                 1.777156073426415E+11,      /* J = 14 */
(PID.TID 0000.0001)                 1.833290312848623E+11,      /* J = 15 */
(PID.TID 0000.0001)                 1.880492946148330E+11,      /* J = 16 */
(PID.TID 0000.0001)                 1.918534006840893E+11,      /* J = 17 */
(PID.TID 0000.0001)                 1.947228162702492E+11,      /* J = 18 */
(PID.TID 0000.0001)                 1.966435618690094E+11,      /* J = 19 */
(PID.TID 0000.0001)     2 @  1.976062798008856E+11,             /* J = 20: 21 */
(PID.TID 0000.0001)                 1.966435618690094E+11,      /* J = 22 */
(PID.TID 0000.0001)                 1.947228162702492E+11,      /* J = 23 */
(PID.TID 0000.0001)                 1.918534006840893E+11,      /* J = 24 */
(PID.TID 0000.0001)                 1.880492946148330E+11,      /* J = 25 */
(PID.TID 0000.0001)                 1.833290312848623E+11,      /* J = 26 */
(PID.TID 0000.0001)                 1.777156073426415E+11,      /* J = 27 */
(PID.TID 0000.0001)                 1.712363708253573E+11,      /* J = 28 */
(PID.TID 0000.0001)                 1.639228879220326E+11,      /* J = 29 */
(PID.TID 0000.0001)                 1.558107891862220E+11,      /* J = 30 */
(PID.TID 0000.0001)                 1.469395959475426E+11,      /* J = 31 */
(PID.TID 0000.0001)                 1.373525277677229E+11,      /* J = 32 */
(PID.TID 0000.0001)                 1.270962918792468E+11,      /* J = 33 */
(PID.TID 0000.0001)                 1.162208556324093E+11,      /* J = 34 */
(PID.TID 0000.0001)                 1.047792030594103E+11,      /* J = 35 */
(PID.TID 0000.0001)                 9.282707674147523E+10,      /* J = 36 */
(PID.TID 0000.0001)                 8.042270623659998E+10,      /* J = 37 */
(PID.TID 0000.0001)                 6.762652439100235E+10,      /* J = 38 */
(PID.TID 0000.0001)                 5.450087291636665E+10,      /* J = 39 */
(PID.TID 0000.0001)                 4.110969866729047E+10       /* J = 40 */
(PID.TID 0000.0001)     ;
(PID.TID 0000.0001) rAw =  /* rAw(:,1,:,1) ( units: m^2 ) */
(PID.TID 0000.0001)    90 @  4.110969866729047E+10              /* I =  1: 90 */
(PID.TID 0000.0001)     ;
(PID.TID 0000.0001) rAw =  /* rAw(1,:,1,:) ( units: m^2 ) */
(PID.TID 0000.0001)                 4.110969866729047E+10,      /* J =  1 */
(PID.TID 0000.0001)                 5.450087291636665E+10,      /* J =  2 */
(PID.TID 0000.0001)                 6.762652439100235E+10,      /* J =  3 */
(PID.TID 0000.0001)                 8.042270623659998E+10,      /* J =  4 */
(PID.TID 0000.0001)                 9.282707674147523E+10,      /* J =  5 */
(PID.TID 0000.0001)                 1.047792030594103E+11,      /* J =  6 */
(PID.TID 0000.0001)                 1.162208556324093E+11,      /* J =  7 */
(PID.TID 0000.0001)                 1.270962918792468E+11,      /* J =  8 */
(PID.TID 0000.0001)                 1.373525277677229E+11,      /* J =  9 */
(PID.TID 0000.0001)                 1.469395959475426E+11,      /* J = 10 */
(PID.TID 0000.0001)                 1.558107891862220E+11,      /* J = 11 */
(PID.TID 0000.0001)                 1.639228879220326E+11,      /* J = 12 */
(PID.TID 0000.0001)                 1.712363708253573E+11,      /* J = 13 */
(PID.TID 0000.0001)                 1.777156073426415E+11,      /* J = 14 */
(PID.TID 0000.0001)                 1.833290312848623E+11,      /* J = 15 */
(PID.TID 0000.0001)                 1.880492946148330E+11,      /* J = 16 */
(PID.TID 0000.0001)                 1.918534006840893E+11,      /* J = 17 */
(PID.TID 0000.0001)                 1.947228162702492E+11,      /* J = 18 */
(PID.TID 0000.0001)                 1.966435618690094E+11,      /* J = 19 */
(PID.TID 0000.0001)     2 @  1.976062798008856E+11,             /* J = 20: 21 */
(PID.TID 0000.0001)                 1.966435618690094E+11,      /* J = 22 */
(PID.TID 0000.0001)                 1.947228162702492E+11,      /* J = 23 */
(PID.TID 0000.0001)                 1.918534006840893E+11,      /* J = 24 */
(PID.TID 0000.0001)                 1.880492946148330E+11,      /* J = 25 */
(PID.TID 0000.0001)                 1.833290312848623E+11,      /* J = 26 */
(PID.TID 0000.0001)                 1.777156073426415E+11,      /* J = 27 */
(PID.TID 0000.0001)                 1.712363708253573E+11,      /* J = 28 */
(PID.TID 0000.0001)                 1.639228879220326E+11,      /* J = 29 */
(PID.TID 0000.0001)                 1.558107891862220E+11,      /* J = 30 */
(PID.TID 0000.0001)                 1.469395959475426E+11,      /* J = 31 */
(PID.TID 0000.0001)                 1.373525277677229E+11,      /* J = 32 */
(PID.TID 0000.0001)                 1.270962918792468E+11,      /* J = 33 */
(PID.TID 0000.0001)                 1.162208556324093E+11,      /* J = 34 */
(PID.TID 0000.0001)                 1.047792030594103E+11,      /* J = 35 */
(PID.TID 0000.0001)                 9.282707674147523E+10,      /* J = 36 */
(PID.TID 0000.0001)                 8.042270623659998E+10,      /* J = 37 */
(PID.TID 0000.0001)                 6.762652439100235E+10,      /* J = 38 */
(PID.TID 0000.0001)                 5.450087291636665E+10,      /* J = 39 */
(PID.TID 0000.0001)                 4.110969866729047E+10       /* J = 40 */
(PID.TID 0000.0001)     ;
(PID.TID 0000.0001) rAs =  /* rAs(:,1,:,1) ( units: m^2 ) */
(PID.TID 0000.0001)    90 @  3.433488626798250E+10              /* I =  1: 90 */
(PID.TID 0000.0001)     ;
(PID.TID 0000.0001) rAs =  /* rAs(1,:,1,:) ( units: m^2 ) */
(PID.TID 0000.0001)                 3.433488626798250E+10,      /* J =  1 */
(PID.TID 0000.0001)                 4.783442523123625E+10,      /* J =  2 */
(PID.TID 0000.0001)                 6.110091968306414E+10,      /* J =  3 */
(PID.TID 0000.0001)                 7.406973659603818E+10,      /* J =  4 */
(PID.TID 0000.0001)                 8.667769319778079E+10,      /* J =  5 */
(PID.TID 0000.0001)                 9.886336479107463E+10,      /* J =  6 */
(PID.TID 0000.0001)                 1.105673840088173E+11,      /* J =  7 */
(PID.TID 0000.0001)                 1.217327300458638E+11,      /* J =  8 */
(PID.TID 0000.0001)                 1.323050064586578E+11,      /* J =  9 */
(PID.TID 0000.0001)                 1.422327061792377E+11,      /* J = 10 */
(PID.TID 0000.0001)                 1.514674624524945E+11,      /* J = 11 */
(PID.TID 0000.0001)                 1.599642844741385E+11,      /* J = 12 */
(PID.TID 0000.0001)                 1.676817765813788E+11,      /* J = 13 */
(PID.TID 0000.0001)                 1.745823399284268E+11,      /* J = 14 */
(PID.TID 0000.0001)                 1.806323556642996E+11,      /* J = 15 */
(PID.TID 0000.0001)                 1.858023487204767E+11,      /* J = 16 */
(PID.TID 0000.0001)                 1.900671314104743E+11,      /* J = 17 */
(PID.TID 0000.0001)                 1.934059261417216E+11,      /* J = 18 */
(PID.TID 0000.0001)                 1.958024666419019E+11,      /* J = 19 */
(PID.TID 0000.0001)                 1.972450772065981E+11,      /* J = 20 */
(PID.TID 0000.0001)                 1.977267295821495E+11,      /* J = 21 */
(PID.TID 0000.0001)                 1.972450772065981E+11,      /* J = 22 */
(PID.TID 0000.0001)                 1.958024666419019E+11,      /* J = 23 */
(PID.TID 0000.0001)                 1.934059261417216E+11,      /* J = 24 */
(PID.TID 0000.0001)                 1.900671314104743E+11,      /* J = 25 */
(PID.TID 0000.0001)                 1.858023487204767E+11,      /* J = 26 */
(PID.TID 0000.0001)                 1.806323556642996E+11,      /* J = 27 */
(PID.TID 0000.0001)                 1.745823399284268E+11,      /* J = 28 */
(PID.TID 0000.0001)                 1.676817765813788E+11,      /* J = 29 */
(PID.TID 0000.0001)                 1.599642844741385E+11,      /* J = 30 */
(PID.TID 0000.0001)                 1.514674624524945E+11,      /* J = 31 */
(PID.TID 0000.0001)                 1.422327061792377E+11,      /* J = 32 */
(PID.TID 0000.0001)                 1.323050064586578E+11,      /* J = 33 */
(PID.TID 0000.0001)                 1.217327300458638E+11,      /* J = 34 */
(PID.TID 0000.0001)                 1.105673840088173E+11,      /* J = 35 */
(PID.TID 0000.0001)                 9.886336479107463E+10,      /* J = 36 */
(PID.TID 0000.0001)                 8.667769319778079E+10,      /* J = 37 */
(PID.TID 0000.0001)                 7.406973659603818E+10,      /* J = 38 */
(PID.TID 0000.0001)                 6.110091968306414E+10,      /* J = 39 */
(PID.TID 0000.0001)                 4.783442523123625E+10       /* J = 40 */
(PID.TID 0000.0001)     ;
(PID.TID 0000.0001) globalArea = /* Integrated horizontal Area (m^2) */
(PID.TID 0000.0001)                 3.450614146649838E+14
(PID.TID 0000.0001)     ;
(PID.TID 0000.0001) // =======================================================
(PID.TID 0000.0001) // End of Model config. summary
(PID.TID 0000.0001) // =======================================================
(PID.TID 0000.0001) 
(PID.TID 0000.0001)  MDSREADFIELD: opening global file: bathymetry.bin
(PID.TID 0000.0001) // =======================================================
(PID.TID 0000.0001) // Field Model R_low (ini_masks_etc) at iteration          1
(PID.TID 0000.0001) // CMIN =         -5.200000000000000E+03
(PID.TID 0000.0001) // CMAX =         -1.200000000000000E+02
(PID.TID 0000.0001) // CINT =          1.881481481481482E+02
(PID.TID 0000.0001) // SYMBOLS (CMIN->CMAX): -abcdefghijklmnopqrstuvwxyz+
(PID.TID 0000.0001) //                  0.0: .
(PID.TID 0000.0001) // RANGE I (Lo:Hi:Step):(  -2:  93:   1)
(PID.TID 0000.0001) // RANGE J (Lo:Hi:Step):(  43:  -2:  -1)
(PID.TID 0000.0001) // RANGE K (Lo:Hi:Step):(   1:   1:   1)
(PID.TID 0000.0001) // =======================================================
(PID.TID 0000.0001) K =   1
(PID.TID 0000.0001) //                I=7       I=17      I=27      I=37      I=47      I=57      I=67      I=77      I=87
(PID.TID 0000.0001) // |--J--|210123456|890123456|890123456|890123456|890123456|890123456|890123456|890123456|890123456|890123
(PID.TID 0000.0001) //     43 ................................................................................................
(PID.TID 0000.0001) //     42 .............................................zyxxmgfeeefefgimnpwwwy..+zyy.....yyyyoiiihhz+......
(PID.TID 0000.0001) //     41 ................................................................................................
(PID.TID 0000.0001) //     40 +qlloqz+.++++zzz++++++..................................................................+++qlloq
(PID.TID 0000.0001) //     39 uslloorzzzzzzzzz+...++.....................................................yxxz........+zvuslloo
(PID.TID 0000.0001) //     38 smqpporzzzzzz+++...........................................................zxxy+......zyyvsmqppo
(PID.TID 0000.0001) //     37 smmmuz..................................................................++...zy+...yttyy.+smmmuz
(PID.TID 0000.0001) //     36 yutt+.........................................mm++....................+++++++znmm.yoowssvuyutt+.
(PID.TID 0000.0001) //     35 w++++.................................+zzz..rrmmkk+...+gghn...........+++....+nmiijlsoopuww++++.
(PID.TID 0000.0001) //     34 +.....................................+vvy.ggqyxv+y.ccdffhim..................+nihhikkihhm+.....
(PID.TID 0000.0001) //     33 w+.....................................uuz---h------aaabdefin+.................zqvddflifffw+....
(PID.TID 0000.0001) //     32 m+.....................................+t----h---------acdfgnn................+++gdffkofffm+....
(PID.TID 0000.0001) //     31 m......................................-----ad--------abddegil..............qbaafccdhqqgddm.....
(PID.TID 0000.0001) //     30 i.....................................f----b--b------------abd............zfbb--fbcdosjfddi.....
(PID.TID 0000.0001) //     29 i...................................tu----e---fjg----------abdf...........eaac--abfmijaadgi.....
(PID.TID 0000.0001) //     28 z.................................+xfl-------------------bdedefi.........qbaa---aemfbbaaejz.....
(PID.TID 0000.0001) //     27 .................xx..............+wfgfpf--------eallc---bbbccefgi...+++x.qb-----akfa---ah.......
(PID.TID 0000.0001) //     26 .................xnn...........+vd---dna------a--aicfna---aabdfghku.++xssuy-----bgca---ci.......
(PID.TID 0000.0001) //     25 .................iiik...oo+...+ivd---doaa-bc--ilglf--aa---aabcghhkll...ssum+xaaacjbaabdjk.......
(PID.TID 0000.0001) //     24 ...............xnheeft.kkk+...uii.aagdm----aa-----a-------bbbcdefjljjju.zummwwbbchba--abi.......
(PID.TID 0000.0001) //     23 ...............xgheefp.iikw...uuw..fihi----fed-----eaaa--bbbbcdfflkjiiiq....zykccefa--abd.......
(PID.TID 0000.0001) //     22 quss...........bbelffslffkk...zz.wqkeeqoheccdfa-----egabaabcdddegghliiiqq......xeeehheehccquss..
(PID.TID 0000.0001) //     21 cbbeir........nbbcdjhqdddiiz.....wqfeelgghmedea-----bibbcddddddefghklnqoo........ieeflhgcccbbeir
(PID.TID 0000.0001) //     20 cbbder.......ldcccdgkccccidd......z.vkkktqqhegg----aaacddddddddefghkiiijl.........nhfa--gfcbbder
(PID.TID 0000.0001) //     19 hcdaaf.......kddosggpaaaibbccx...+z+.....r+nlec---agaaabcddccddefikfgffff...........d---cjhcdaaf
(PID.TID 0000.0001) //     18 hd---d.......kglggvliaaaibbcaaeaiv++...qqzolhecccfdgkaabcdfccdeeikgfgffdd+..........d---djhd---d
(PID.TID 0000.0001) //     17 hc---c.......l.feewlfaaaoaa----aiv.....qqnllslmlofcdbaacceffffhhligfigeddj.........hd---ckhc---c
(PID.TID 0000.0001) //     16 gba--c......tn.ddgnlfdaaqa-----lv.......vnllvllnwv--accivomfffhilhgfffeddjf........re--aeigba--c
(PID.TID 0000.0001) //     15 fb--dpz....+ll.ccdfhmdddlc----av.........otsxoomv---abccddfihgijkhgfffeejfff......+fd---ckfb--dp
(PID.TID 0000.0001) //     14 fc--mcl....weeqbaafilkfend--eagy.........hhstofft----aacdheefijkmjhhjijiffff.....zlfdaaadlfc--mc
(PID.TID 0000.0001) //     13 hcclbbg....nccobaaiddgkffqrqeaal.........eeutqfft------aaceeffhijlkjhhigfffq....+jgfodccflhcclbb
(PID.TID 0000.0001) //     12 hhgaaacw+iiicclemhdddfliigfdcaabfaaaz....ccsurqpc--------abcifffikiiihhggff.....kbbbdfffglhhgaaa
(PID.TID 0000.0001) //     11 kgcaaacbbifccennhbbdefnihgfdccaaaa----..dcccnt.ncab-------aabcdfilhggjiggff....l---abcefjlkgcaaa
(PID.TID 0000.0001) //     10 kfcaaccbdaacfrllfbbdegkmmljhfdddba----d.dcccfx.nyrebaba----abcdgilhfeegijgi..+w--aa-abcfilkfcaac
(PID.TID 0000.0001) //      9 lffcdcccaaaoqsolfdeehikihhlllgfedcccccdmdcccf.vyfaaaaaaaa--abdehmjhfeeefglv.++w-----abcdfklffcdc
(PID.TID 0000.0001) //      8 liffjklcaafddffeeccvznkfffhhhlkjifgjkkfeeddfsyvcaaaaaaccdcccdfgjligedbbceg+.++xffn--cfddefliffjk
(PID.TID 0000.0001) //      7 hmqnnbbkkf--bmbaabbgtykfddeffeeddccdfhlffeelfbaaaaaacddeghgjgjlligeddaaabedfiiiiiisvkfkecchmqnnb
(PID.TID 0000.0001) //      6 cca-------------aabcelttdddedddddccccdfkkiiffbaaaabcdgimmkmefecaaabbbaaabbdfiiiiispmmregifcca---
(PID.TID 0000.0001) //      5 --------a-------aaccehhhiddeddddddcccdfiikomodddefffmlmigedccaaaaaaaababbbdfiijsqgeccccbaa------
(PID.TID 0000.0001) //      4 --ahebaabbbbbeihffgijiiiijpywnnpokkomkiiijmmmolkommmgffeeedccaaaaaabbcccefhmz..yjgeccccbaa--aheb
(PID.TID 0000.0001) //      3 gffhhrpjiiwyy............................yxotmjjjjgfeeeeeeddeffffheddeghjkyy..yqjgeddccdbbgffhhr
(PID.TID 0000.0001) //      2 .............................................zyxxmgfeeefefgimnpwwwy..+zyy.....yyyyoiiihhz+......
(PID.TID 0000.0001) //      1 ................................................................................................
(PID.TID 0000.0001) //      0 +qlloqz+.++++zzz++++++..................................................................+++qlloq
(PID.TID 0000.0001) //     -1 uslloorzzzzzzzzz+...++.....................................................yxxz........+zvuslloo
(PID.TID 0000.0001) //     -2 ................................................................................................
(PID.TID 0000.0001) // =======================================================
(PID.TID 0000.0001) // END OF FIELD                                          =
(PID.TID 0000.0001) // =======================================================
(PID.TID 0000.0001) 
(PID.TID 0000.0001) // =======================================================
(PID.TID 0000.0001) // Field Model Ro_surf (ini_masks_etc) at iteration          1
(PID.TID 0000.0001) // CMIN =          1.000000000000000E+32
(PID.TID 0000.0001) // CMAX =         -1.000000000000000E+32
(PID.TID 0000.0001) // CINT =          0.000000000000000E+00
(PID.TID 0000.0001) // SYMBOLS (CMIN->CMAX): -abcdefghijklmnopqrstuvwxyz+
(PID.TID 0000.0001) //                  0.0: .
(PID.TID 0000.0001) // RANGE I (Lo:Hi:Step):(  -2:  93:   1)
(PID.TID 0000.0001) // RANGE J (Lo:Hi:Step):(  43:  -2:  -1)
(PID.TID 0000.0001) // RANGE K (Lo:Hi:Step):(   1:   1:   1)
(PID.TID 0000.0001) // =======================================================
(PID.TID 0000.0001) // =======================================================
(PID.TID 0000.0001) // END OF FIELD                                          =
(PID.TID 0000.0001) // =======================================================
(PID.TID 0000.0001) 
(PID.TID 0000.0001) // =======================================================
(PID.TID 0000.0001) // Field hFacC at iteration          1
(PID.TID 0000.0001) // CMIN =          1.000000000000000E+00
(PID.TID 0000.0001) // CMAX =          1.000000000000000E+00
(PID.TID 0000.0001) // CINT =          0.000000000000000E+00
(PID.TID 0000.0001) // SYMBOLS (CMIN->CMAX): -abcdefghijklmnopqrstuvwxyz+
(PID.TID 0000.0001) //                  0.0: .
(PID.TID 0000.0001) // RANGE I (Lo:Hi:Step):(  -2:  93:   1)
(PID.TID 0000.0001) // RANGE J (Lo:Hi:Step):(  43:  -2:  -1)
(PID.TID 0000.0001) // RANGE K (Lo:Hi:Step):(   1:   1:   1)
(PID.TID 0000.0001) // =======================================================
(PID.TID 0000.0001) // =======================================================
(PID.TID 0000.0001) // END OF FIELD                                          =
(PID.TID 0000.0001) // =======================================================
(PID.TID 0000.0001) 
(PID.TID 0000.0001) // =======================================================
(PID.TID 0000.0001) // Field hFacW at iteration          1
(PID.TID 0000.0001) // CMIN =          1.000000000000000E+00
(PID.TID 0000.0001) // CMAX =          1.000000000000000E+00
(PID.TID 0000.0001) // CINT =          0.000000000000000E+00
(PID.TID 0000.0001) // SYMBOLS (CMIN->CMAX): -abcdefghijklmnopqrstuvwxyz+
(PID.TID 0000.0001) //                  0.0: .
(PID.TID 0000.0001) // RANGE I (Lo:Hi:Step):(  -2:  93:   1)
(PID.TID 0000.0001) // RANGE J (Lo:Hi:Step):(  43:  -2:  -1)
(PID.TID 0000.0001) // RANGE K (Lo:Hi:Step):(   1:   1:   1)
(PID.TID 0000.0001) // =======================================================
(PID.TID 0000.0001) // =======================================================
(PID.TID 0000.0001) // END OF FIELD                                          =
(PID.TID 0000.0001) // =======================================================
(PID.TID 0000.0001) 
(PID.TID 0000.0001) // =======================================================
(PID.TID 0000.0001) // Field hFacS at iteration          1
(PID.TID 0000.0001) // CMIN =          1.000000000000000E+00
(PID.TID 0000.0001) // CMAX =          1.000000000000000E+00
(PID.TID 0000.0001) // CINT =          0.000000000000000E+00
(PID.TID 0000.0001) // SYMBOLS (CMIN->CMAX): -abcdefghijklmnopqrstuvwxyz+
(PID.TID 0000.0001) //                  0.0: .
(PID.TID 0000.0001) // RANGE I (Lo:Hi:Step):(  -2:  93:   1)
(PID.TID 0000.0001) // RANGE J (Lo:Hi:Step):(  43:  -2:  -1)
(PID.TID 0000.0001) // RANGE K (Lo:Hi:Step):(   1:   1:   1)
(PID.TID 0000.0001) // =======================================================
(PID.TID 0000.0001) // =======================================================
(PID.TID 0000.0001) // END OF FIELD                                          =
(PID.TID 0000.0001) // =======================================================
(PID.TID 0000.0001) 
(PID.TID 0000.0001) %MON fCori_max                    =   1.4226580169407E-04
(PID.TID 0000.0001) %MON fCori_min                    =  -1.4226580169407E-04
(PID.TID 0000.0001) %MON fCori_mean                   =   7.5291817533716E-23
(PID.TID 0000.0001) %MON fCori_sd                     =   9.6335367303778E-05
(PID.TID 0000.0001) %MON fCoriG_max                   =   1.4112379284621E-04
(PID.TID 0000.0001) %MON fCoriG_min                   =  -1.4323448157692E-04
(PID.TID 0000.0001) %MON fCoriG_mean                  =  -3.6726790147928E-06
(PID.TID 0000.0001) %MON fCoriG_sd                    =   9.7510077443652E-05
(PID.TID 0000.0001) %MON fCoriCos_max                 =   1.4535550371427E-04
(PID.TID 0000.0001) %MON fCoriCos_min                 =   3.0239529651320E-05
(PID.TID 0000.0001) %MON fCoriCos_mean                =   1.0260497651149E-04
(PID.TID 0000.0001) %MON fCoriCos_sd                  =   3.6683828681187E-05
(PID.TID 0000.0001) INI_CG2D: CG2D normalisation factor =  6.5682677425711703E-05
(PID.TID 0000.0001) 
(PID.TID 0000.0001)  MDSREADFIELD: opening global file: lev_t.bin
(PID.TID 0000.0001) // =======================================================
(PID.TID 0000.0001) // Field Initial Temperature at iteration          1
(PID.TID 0000.0001) // CMIN =         -1.900000000000000E+00
(PID.TID 0000.0001) // CMAX =          2.973338890075684E+01
(PID.TID 0000.0001) // CINT =          1.171606996324327E+00
(PID.TID 0000.0001) // SYMBOLS (CMIN->CMAX): -abcdefghijklmnopqrstuvwxyz+
(PID.TID 0000.0001) //                  0.0: .
(PID.TID 0000.0001) // RANGE I (Lo:Hi:Step):(   1:  90:   1)
(PID.TID 0000.0001) // RANGE J (Lo:Hi:Step):(  40:   1:  -1)
(PID.TID 0000.0001) // RANGE K (Lo:Hi:Step):(   1:   1:   1)
(PID.TID 0000.0001) // =======================================================
(PID.TID 0000.0001) K =   1
(PID.TID 0000.0001)                I=10      I=20      I=30      I=40      I=50      I=60      I=70      I=80      I=90
(PID.TID 0000.0001) |--J--|123456789|123456789|123456789|123456789|123456789|123456789|123456789|123456789|123456789|
(PID.TID 0000.0001)     40 bccdd.baa----abdedd..................................................................bbbbb
(PID.TID 0000.0001)     39 ccdddddccbbbaa...ed.....................................................----........bbbbbb
(PID.TID 0000.0001)     38 fffgfedeedddc...........................................................-----......cbbbcde
(PID.TID 0000.0001)     37 ghh..................................................................bc...bbc...edeed.defg
(PID.TID 0000.0001)     36 hh.........................................ddcb....................dcccbabccdd.eefghhihhih
(PID.TID 0000.0001)     35 hh.................................aaab..dddeddd...ffggg...........ccc....ddeeeffghijjjjih
(PID.TID 0000.0001)     34 ...................................babb.deeeeeee.ffffgghh..................ccdffghijkkkj..
(PID.TID 0000.0001)     33 ....................................accdddeeeeefffffgghhiii.................bcfijkkllllkk.
(PID.TID 0000.0001)     32 ....................................bdddeffgffgghhhhhiiijjj................dccglmnmmmmlll.
(PID.TID 0000.0001)     31 ....................................fghiiiijjjjjjkkkkklllkk..............ikkjjmooooonnmm..
(PID.TID 0000.0001)     30 ...................................mmmnmmmmmmmmmmmmmnnnnnmm............moqrrrqrqqqpppooo..
(PID.TID 0000.0001)     29 .................................pqqqqqpppppppppoppoppppponm...........ssssssrrrrrqqqqpp..
(PID.TID 0000.0001)     28 ...............................prssssrrrsssrrrrrrrrrrrrrqqpoo.........uttssstssrssrrrqqq..
(PID.TID 0000.0001)     27 ..............vv..............stuttuuuuutuuuuuuuuuuttttssrrqqq...stuu.vvvuuuuutttttsss....
(PID.TID 0000.0001)     26 ..............vvv...........uuvvvvvwwwwwwwwvvvvvvvvvuuutttsssttv.uuvxxwwwwwwvvvvuuttsr....
(PID.TID 0000.0001)     25 ..............wwwx...xxx...vvvxxxxxyyxxxxxxxxxwwwwwvvvvvuuuuuvwwx...xxxxxxwwwwwwvvutsr....
(PID.TID 0000.0001)     24 ............wwwwxyy.xxyy...wxx.yyyyyyyyyyyxxxxxxxxwwwwwwwvvwwxxyywww.xxxxxxxxxxwwwvvur....
(PID.TID 0000.0001)     23 ............xxxyyyz.xyyy...xxx..yyyyzzyyyyyyyyxxxxxxxxxwwwwwxxxwwwwwx....vwxxxxwwwwwvu....
(PID.TID 0000.0001)     22 w...........xxyyyzyyyyyz...xx.yyzzzzzzzzzzzzzyyzyyyyyyxxwwxxxxwvvvwwxw......yyyyxxxxxxwxxw
(PID.TID 0000.0001)     21 xxx........xxxxyyzzzzzzz+.....zyzzzzzzz++zzzzyyyyyyyyxxwvvwwwwvvvvvvvu........yyyyyyyyyxxx
(PID.TID 0000.0001)     20 xww.......xyyyyxyyzzzzzz+......z.zzzzz+++zzzzzzyyyyyxxxxwvwxwvuuuuuuut.........yyyyxxxxwww
(PID.TID 0000.0001)     19 vvv.......yyyyxwwxyzyyzzzzz...zzz.....++++++z++z+zzzyyyyxxxxwwvvvvvvvu...........yyxxxwwww
(PID.TID 0000.0001)     18 uut.......zzyyywwxyzyyyyzzyzzzzzz...z+z++++zz+++++++zzzyyyyxxwwwvvvvvtt..........yyxxwvvwv
(PID.TID 0000.0001)     17 uus.......z.yyyyyyxyzzyyyyyyyzz.....yzzzzzzzzzzzzzzzzzzyyyyxxwwvuuvvuut.........yyyxxwttvu
(PID.TID 0000.0001)     16 utr......yy.zyyyyxxxxxxxwxxxxy.......yyyyyyyyyyyyyyyyyyyyyyyxxwvvvuuutts........xyyyxwvuuu
(PID.TID 0000.0001)     15 ttrr....xxx.xxxwxwwwwvwwvvvww.........xwxxxxxxxxxxxxxxxxxyyyxwwwvvuttssrr......wxxxxxwwvuu
(PID.TID 0000.0001)     14 ttsq....xyxwwxwvwwwvutuuuuuuu.........wwvwwwwvwvvwwwvwvvwwwwwwvvvuuutssrr.....vwwwwwwwvvvu
(PID.TID 0000.0001)     13 tttr....wwwvvvtttuuuutttssttt.........vvvuuuuuuutttttuuuuuvwwwuuuttttssrr....uvvvvvvvvvvut
(PID.TID 0000.0001)     12 sssssstttutssssrrrrrstrqqrrssqqrrq....uuttssssrrrrrrrrrrrstttssssrssrrqp.....uuuttssttssss
(PID.TID 0000.0001)     11 poprsssrqqqqqrqppooopqpoppppppppppp..sssrrr.rqpppqqqqppppqqqoppqqqqrqqpp....prsrqqqqqppppq
(PID.TID 0000.0001)     10 lllmoooonmnnmnnnnmmmmmmlmmlllmnnnnon.qqqppp.ppppppooooooooonmnnnonnooooo..nmoponnmnnnnnmll
(PID.TID 0000.0001)      9 ihhiiiihhhhhhiiihiiiiihhhiiiijjkkmnllnnnnn.mmmmnnnnmmmmnnmmlklllllklllll.mllmmllkjiijjihhi
(PID.TID 0000.0001)      8 eeeeeeeedefgggffeeffggffffggghiiiijjijklklkkkkkkkklllkkkkjjiiijkjjjjjjkj.kkjjiihggffffedde
(PID.TID 0000.0001)      7 cccccddeedddefeddddddddddefeefffffgggghiiiiiijjjihhgggghhhhhghhhhhhhiiiihiihhgfeddddddcccc
(PID.TID 0000.0001)      6 abbcccddcccccdddddccdddddddccddddddeeeeffggggghhgeddddddeeeeeeefggggghggggffeedccbbbbbbbba
(PID.TID 0000.0001)      5 bbbcccccccccccccccccccccbbccccdddddddcccddeeddeedcbbbbbbccccccdddeeeeeddddddccbbbbaaaaaaab
(PID.TID 0000.0001)      4 bbbbbbbaaabbbbbbbbbbbbaabbabbbbcbbbbbbbbbbbbbbbbbbbabbaaabbbbbbbbbbbbbbbbb..a--aaabbbaaabb
(PID.TID 0000.0001)      3 bbbbaaa-a-............................bbaaaaaaaaaaaaaaaaaaaaaaaaaaaaaaaab..aaaaaaaabbbaaaa
(PID.TID 0000.0001)      2 ..........................................baaaaaaaaaaaa-------aa..aaaa.....aaaaaaaaaaaa...
(PID.TID 0000.0001)      1 ..........................................................................................
(PID.TID 0000.0001) // =======================================================
(PID.TID 0000.0001) // END OF FIELD                                          =
(PID.TID 0000.0001) // =======================================================
(PID.TID 0000.0001) 
(PID.TID 0000.0001)  MDSREADFIELD: opening global file: lev_s.bin
(PID.TID 0000.0001) // =======================================================
(PID.TID 0000.0001) // Field Initial Salinity at iteration          1
(PID.TID 0000.0001) // CMIN =          2.975276947021484E+01
(PID.TID 0000.0001) // CMAX =          3.747562789916992E+01
(PID.TID 0000.0001) // CINT =          2.860317936650029E-01
(PID.TID 0000.0001) // SYMBOLS (CMIN->CMAX): -abcdefghijklmnopqrstuvwxyz+
(PID.TID 0000.0001) //                  0.0: .
(PID.TID 0000.0001) // RANGE I (Lo:Hi:Step):(   1:  90:   1)
(PID.TID 0000.0001) // RANGE J (Lo:Hi:Step):(  40:   1:  -1)
(PID.TID 0000.0001) // RANGE K (Lo:Hi:Step):(   1:   1:   1)
(PID.TID 0000.0001) // =======================================================
(PID.TID 0000.0001) K =   1
(PID.TID 0000.0001)                I=10      I=20      I=30      I=40      I=50      I=60      I=70      I=80      I=90
(PID.TID 0000.0001) |--J--|123456789|123456789|123456789|123456789|123456789|123456789|123456789|123456789|123456789|
(PID.TID 0000.0001)     40 qrrrr.oonnooopqtutt..................................................................mnnop
(PID.TID 0000.0001)     39 rssrrrrrrrqqpn...ut.....................................................mmmm........opqqqr
(PID.TID 0000.0001)     38 ssrrqqqqrrqpo...........................................................lkkll......onoqrrs
(PID.TID 0000.0001)     37 ssr..................................................................hg...lln...qppqr.rrrs
(PID.TID 0000.0001)     36 rr.........................................lkji....................feeegikmoop.pqrssssssss
(PID.TID 0000.0001)     35 rr.................................kkkk..lllllki...jijjj...........aa-....opqrrrrrrrssttss
(PID.TID 0000.0001)     34 ...................................jlll.kklllllk.ijkkkjih..................hlpqrqrrsstts..
(PID.TID 0000.0001)     33 ....................................iklkkkkkkkkkjkkjjjjjjii.................jmprrsstttttt.
(PID.TID 0000.0001)     32 ....................................iklllkllllllllkkkkkkkji................gilpstuuttuuut.
(PID.TID 0000.0001)     31 ....................................lmnonnnnoooonnmmmmllkjj..............loopqtvvvuuuuuu..
(PID.TID 0000.0001)     30 ...................................pppppppqqqqpppoooonnmlkk............ptvxwwvvwvvvvvvvu..
(PID.TID 0000.0001)     29 .................................pqqrqqqqqqrrrqqppqqqpponmll...........vxxxxxxwwwwwxwwxw..
(PID.TID 0000.0001)     28 ...............................prrrrrqqrrrrrsrrsrssssssrqonmm.........wxxxxxxxyyyyyyyyxx..
(PID.TID 0000.0001)     27 ..............xx..............prrrrrrrrrssssssstttssssssrqpoop...uwww.wwxxxyyy++zzzzyy....
(PID.TID 0000.0001)     26 ..............wxx...........ppqrrrrrrsssrrstsstttssrrrrrrrqppqqp.wwwvvwwwwwxyy+++zzyxw....
(PID.TID 0000.0001)     25 ..............wxxv...kkk...ooopqrrrrrssrrrrrrrssssqqpppppppppppoo...vvutuuvvwxyyyxxvvu....
(PID.TID 0000.0001)     24 ............uvvwwur.lmlk...nmm.pqqqqrrrrrqqqqrrqqrpppppooooonmmmnooo.uuuuuuttuvvvuvuut....
(PID.TID 0000.0001)     23 ............vvuvtqp.lmml...mln..ppppqpqppppppqpppppppppqppponnnnnoopm....xvuuuvvvvuuut....
(PID.TID 0000.0001)     22 r...........vuttsqqpnppn...mm.oppqqrrqqqqqqppppqqrrrqqqrrppppoopooomjj......uuvvvvvuttssrr
(PID.TID 0000.0001)     21 qmm........ttsssssssrsqon.....opqqqqqqqrrrrqqqssssssrrrrrrrrpqqqppomll........tvvvvuttssrr
(PID.TID 0000.0001)     20 sqq.......sttssrrsrrrrpol......p.qrqpqrrrrrrrstttttsssrrsssrqrrrrqqqpo.........wwwvvvuuutt
(PID.TID 0000.0001)     19 tsr.......ssssrrrrpppppnmmm...oqq.....qrqqsrrstttuuuttssttssrrssrrrrqq...........wwwvuvvvv
(PID.TID 0000.0001)     18 wut.......ssrrrrrqppppppppoooorrr...poqqqprrrttttuuutuuuuuutttttttutsss..........yyxwwxwxx
(PID.TID 0000.0001)     17 wwu.......s.rrrrrrqppppqqqqqqqr.....rrsrqrsssuusrtuuuvvvwwvvvuuuuutttss.........xyzyyyyxxx
(PID.TID 0000.0001)     16 vvt......ss.qrrssrqrqpqrrrrrrr.......ssrrstsstusrsuuuvwwwwxxwwvvvuttttsr........yz+zzzxwww
(PID.TID 0000.0001)     15 utss....stt.rrssstttsrrsrstsr.........ssstttssttsuuttuvvvvwxwwwwwuttsssrr......xyyyyxyyxwv
(PID.TID 0000.0001)     14 utts....sstrrssstuuuuuuuuuutt.........stttuutttttttuttttttuvvvvvvutsrqrrr.....vxxwwwwxwvwv
(PID.TID 0000.0001)     13 uuut....ttttttttuuuuuvtuuuuuu.........ttttuutttttttuutsssstttttstsqrqqppp....uwwwvuvvvutvv
(PID.TID 0000.0001)     12 ttttttttttttttttttttttssuuuuutuuut....tttttttttttsssssrrrrrrrqqqqqppppoo.....rvvuuttttttuu
(PID.TID 0000.0001)     11 rqsttttttttuuttttsssssrrstttttttsss..ttttts.tsssrrrrqqqqqppppoonnooooooo....oruttttsssrqrs
(PID.TID 0000.0001)     10 pppqrssrqqrqpqrssrrqqqqqqrrrrrrrrrrs.sssssr.rssrrqqpppppppooooonnnoooonn..moqrrrqqqqqqqqqq
(PID.TID 0000.0001)      9 oonooooooooonnnooooooooooppppppqqqqqrrrqrq.pppqqqqqppppppppppoooooooooll.lmoqqqqppooooopoo
(PID.TID 0000.0001)      8 nnnoonooooooonnnnnnnoooonoonoooppopqqqqqqqppopppqqqpppppppppppppppooopon.lnopppoooonnnnooo
(PID.TID 0000.0001)      7 ooooooooooopponnnooooooonnnnnonnooooooooopppppppoooooooooopppppppppoopqnnmnoooonnnonnnnnno
(PID.TID 0000.0001)      6 oooonnoonnnnooooooooooooonnnnnnnnnnnnnnnnoooopppooooooooooooooppppppppppoooooooonnnnnmnnnn
(PID.TID 0000.0001)      5 oooonnnnnnnnnnnnnnnnnoooooonnnnnnonnnnnnnnnoooooooooooonnnnnnooooooopoooonoooonnnnnnnooooo
(PID.TID 0000.0001)      4 oooonnnooonnnnnnnnnnnnnnoooooonnnooooonnnooooooooppponnnnmmmnnnnmnnoonnnnn..nnnooooooooooo
(PID.TID 0000.0001)      3 ooonnnnnnn............................nnoooooonnooooonnnnnnnoonnnnnnnnmmm..ooopooooooooooo
(PID.TID 0000.0001)      2 ..........................................pppooooonnnnnnoooppppo..nnnn.....qqqpppoooooo...
(PID.TID 0000.0001)      1 ..........................................................................................
(PID.TID 0000.0001) // =======================================================
(PID.TID 0000.0001) // END OF FIELD                                          =
(PID.TID 0000.0001) // =======================================================
(PID.TID 0000.0001) 
(PID.TID 0000.0001) Start initial hydrostatic pressure computation
(PID.TID 0000.0001) Pressure is predetermined for buoyancyRelation OCEANIC
(PID.TID 0000.0001) 
(PID.TID 0000.0001)  MDSREADFIELD: opening file: xx_theta.0000000000.001.001.data
(PID.TID 0000.0001)  MDSREADFIELD: opening file: g_xx_theta.0000000000.001.001.data
(PID.TID 0000.0001)  MDSREADFIELD: opening file: xx_salt.0000000000.001.001.data
(PID.TID 0000.0001)  MDSREADFIELD: opening file: g_xx_salt.0000000000.001.001.data
(PID.TID 0000.0001)  MDSREADFIELD: opening file: xx_diffkr.0000000000.001.001.data
(PID.TID 0000.0001)  MDSREADFIELD: opening file: g_xx_diffkr.0000000000.001.001.data
(PID.TID 0000.0001)  MDSREADFIELD: opening global file: trenberth_taux.bin
(PID.TID 0000.0001)  MDSREADFIELD: opening global file: trenberth_tauy.bin
(PID.TID 0000.0001)  MDSREADFIELD: opening global file: ncep_qnet.bin
(PID.TID 0000.0001)  MDSREADFIELD: opening global file: lev_sst.bin
(PID.TID 0000.0001)  MDSREADFIELD: opening global file: lev_sss.bin
(PID.TID 0000.0001) // =======================================================
(PID.TID 0000.0001) // Model current state
(PID.TID 0000.0001) // =======================================================
(PID.TID 0000.0001) 
(PID.TID 0000.0001) // =======================================================
(PID.TID 0000.0001) // Begin MONITOR dynamic field statistics
(PID.TID 0000.0001) // =======================================================
(PID.TID 0000.0001) %MON g__time_tsnumber             =                     0
(PID.TID 0000.0001) %MON g__time_secondsf             =   0.0000000000000E+00
(PID.TID 0000.0001) %MON g__dynstat_g_eta_max         =   0.0000000000000E+00
(PID.TID 0000.0001) %MON g__dynstat_g_eta_min         =   0.0000000000000E+00
(PID.TID 0000.0001) %MON g__dynstat_g_eta_mean        =   0.0000000000000E+00
(PID.TID 0000.0001) %MON g__dynstat_g_eta_sd          =   0.0000000000000E+00
(PID.TID 0000.0001) %MON g__dynstat_g_eta_del2        =   0.0000000000000E+00
(PID.TID 0000.0001) %MON g__dynstat_g_uvel_max        =   0.0000000000000E+00
(PID.TID 0000.0001) %MON g__dynstat_g_uvel_min        =   0.0000000000000E+00
(PID.TID 0000.0001) %MON g__dynstat_g_uvel_mean       =   0.0000000000000E+00
(PID.TID 0000.0001) %MON g__dynstat_g_uvel_sd         =   0.0000000000000E+00
(PID.TID 0000.0001) %MON g__dynstat_g_uvel_del2       =   0.0000000000000E+00
(PID.TID 0000.0001) %MON g__dynstat_g_vvel_max        =   0.0000000000000E+00
(PID.TID 0000.0001) %MON g__dynstat_g_vvel_min        =   0.0000000000000E+00
(PID.TID 0000.0001) %MON g__dynstat_g_vvel_mean       =   0.0000000000000E+00
(PID.TID 0000.0001) %MON g__dynstat_g_vvel_sd         =   0.0000000000000E+00
(PID.TID 0000.0001) %MON g__dynstat_g_vvel_del2       =   0.0000000000000E+00
(PID.TID 0000.0001) %MON g__dynstat_g_wvel_max        =   0.0000000000000E+00
(PID.TID 0000.0001) %MON g__dynstat_g_wvel_min        =   0.0000000000000E+00
(PID.TID 0000.0001) %MON g__dynstat_g_wvel_mean       =   0.0000000000000E+00
(PID.TID 0000.0001) %MON g__dynstat_g_wvel_sd         =   0.0000000000000E+00
(PID.TID 0000.0001) %MON g__dynstat_g_wvel_del2       =   0.0000000000000E+00
(PID.TID 0000.0001) %MON g__dynstat_g_theta_max       =   0.0000000000000E+00
(PID.TID 0000.0001) %MON g__dynstat_g_theta_min       =   0.0000000000000E+00
(PID.TID 0000.0001) %MON g__dynstat_g_theta_mean      =   0.0000000000000E+00
(PID.TID 0000.0001) %MON g__dynstat_g_theta_sd        =   0.0000000000000E+00
(PID.TID 0000.0001) %MON g__dynstat_g_theta_del2      =   0.0000000000000E+00
(PID.TID 0000.0001) %MON g__dynstat_g_salt_max        =   0.0000000000000E+00
(PID.TID 0000.0001) %MON g__dynstat_g_salt_min        =   0.0000000000000E+00
(PID.TID 0000.0001) %MON g__dynstat_g_salt_mean       =   0.0000000000000E+00
(PID.TID 0000.0001) %MON g__dynstat_g_salt_sd         =   0.0000000000000E+00
(PID.TID 0000.0001) %MON g__dynstat_g_salt_del2       =   0.0000000000000E+00
(PID.TID 0000.0001) %MON g__dynstat_g_sst_max         =   0.0000000000000E+00
(PID.TID 0000.0001) %MON g__dynstat_g_sst_min         =   0.0000000000000E+00
(PID.TID 0000.0001) %MON g__dynstat_g_sst_mean        =   0.0000000000000E+00
(PID.TID 0000.0001) %MON g__dynstat_g_sst_sd          =   0.0000000000000E+00
(PID.TID 0000.0001) %MON g__dynstat_g_sst_del2        =   0.0000000000000E+00
(PID.TID 0000.0001) %MON g__dynstat_g_sss_max         =   0.0000000000000E+00
(PID.TID 0000.0001) %MON g__dynstat_g_sss_min         =   0.0000000000000E+00
(PID.TID 0000.0001) %MON g__dynstat_g_sss_mean        =   0.0000000000000E+00
(PID.TID 0000.0001) %MON g__dynstat_g_sss_sd          =   0.0000000000000E+00
(PID.TID 0000.0001) %MON g__dynstat_g_sss_del2        =   0.0000000000000E+00
(PID.TID 0000.0001) %MON g__extforcing_g_qnet_max     =   0.0000000000000E+00
(PID.TID 0000.0001) %MON g__extforcing_g_qnet_min     =   0.0000000000000E+00
(PID.TID 0000.0001) %MON g__extforcing_g_qnet_mean    =   0.0000000000000E+00
(PID.TID 0000.0001) %MON g__extforcing_g_qnet_sd      =   0.0000000000000E+00
(PID.TID 0000.0001) %MON g__extforcing_g_qnet_del2    =   0.0000000000000E+00
(PID.TID 0000.0001) %MON g__extforcing_g_empmr_max    =   0.0000000000000E+00
(PID.TID 0000.0001) %MON g__extforcing_g_empmr_min    =   0.0000000000000E+00
(PID.TID 0000.0001) %MON g__extforcing_g_empmr_mean   =   0.0000000000000E+00
(PID.TID 0000.0001) %MON g__extforcing_g_empmr_sd     =   0.0000000000000E+00
(PID.TID 0000.0001) %MON g__extforcing_g_empmr_del2   =   0.0000000000000E+00
(PID.TID 0000.0001) %MON g__extforcing_g_fu_max       =   0.0000000000000E+00
(PID.TID 0000.0001) %MON g__extforcing_g_fu_min       =   0.0000000000000E+00
(PID.TID 0000.0001) %MON g__extforcing_g_fu_mean      =   0.0000000000000E+00
(PID.TID 0000.0001) %MON g__extforcing_g_fu_sd        =   0.0000000000000E+00
(PID.TID 0000.0001) %MON g__extforcing_g_fu_del2      =   0.0000000000000E+00
(PID.TID 0000.0001) %MON g__extforcing_g_fv_max       =   0.0000000000000E+00
(PID.TID 0000.0001) %MON g__extforcing_g_fv_min       =   0.0000000000000E+00
(PID.TID 0000.0001) %MON g__extforcing_g_fv_mean      =   0.0000000000000E+00
(PID.TID 0000.0001) %MON g__extforcing_g_fv_sd        =   0.0000000000000E+00
(PID.TID 0000.0001) %MON g__extforcing_g_fv_del2      =   0.0000000000000E+00
(PID.TID 0000.0001) %MON g__g_vcfl_g_uvel_max         =   0.0000000000000E+00
(PID.TID 0000.0001) %MON g__g_vcfl_g_vvel_max         =   0.0000000000000E+00
(PID.TID 0000.0001) %MON g__g_vcfl_g_wvel_max         =   0.0000000000000E+00
(PID.TID 0000.0001) %MON g__g_vcfl_g_W_hf_max         =   0.0000000000000E+00
(PID.TID 0000.0001) // =======================================================
(PID.TID 0000.0001) // End MONITOR dynamic field statistics
(PID.TID 0000.0001) // =======================================================
(PID.TID 0000.0001)  MDSREADFIELD: opening global file: trenberth_taux.bin
(PID.TID 0000.0001)  MDSREADFIELD: opening global file: trenberth_taux.bin
(PID.TID 0000.0001)  MDSREADFIELD: opening global file: trenberth_tauy.bin
(PID.TID 0000.0001)  MDSREADFIELD: opening global file: trenberth_tauy.bin
(PID.TID 0000.0001)  MDSREADFIELD: opening global file: ncep_qnet.bin
(PID.TID 0000.0001)  MDSREADFIELD: opening global file: ncep_qnet.bin
(PID.TID 0000.0001)  MDSREADFIELD: opening global file: lev_sst.bin
(PID.TID 0000.0001)  MDSREADFIELD: opening global file: lev_sst.bin
(PID.TID 0000.0001)  MDSREADFIELD: opening global file: lev_sss.bin
(PID.TID 0000.0001)  MDSREADFIELD: opening global file: lev_sss.bin
(PID.TID 0000.0001)  MDSREADFIELD: opening file: xx_tauu.0000000000.001.001.data
(PID.TID 0000.0001)  MDSREADFIELD: opening file: g_xx_tauu.0000000000.001.001.data
(PID.TID 0000.0001)  MDSREADFIELD: opening file: xx_tauv.0000000000.001.001.data
(PID.TID 0000.0001)  MDSREADFIELD: opening file: g_xx_tauv.0000000000.001.001.data
(PID.TID 0000.0001)  MDSREADFIELD: opening file: xx_sflux.0000000000.001.001.data
(PID.TID 0000.0001)  MDSREADFIELD: opening file: g_xx_sflux.0000000000.001.001.data
(PID.TID 0000.0001)  MDSREADFIELD: opening file: xx_hflux.0000000000.001.001.data
(PID.TID 0000.0001)  MDSREADFIELD: opening file: g_xx_hflux.0000000000.001.001.data
 myIter=  0
(PID.TID 0000.0001) // Model state written, timestep         0
(PID.TID 0000.0001) 
 cg2d: Sum(rhs),rhsMax =   0.00000000000000E+00  0.00000000000000E+00
 cg2d: Sum(rhs),rhsMax =  -4.02455846426619E-15  2.53364304519873E+00
(PID.TID 0000.0001) // =======================================================
(PID.TID 0000.0001) // Begin MONITOR dynamic field statistics
(PID.TID 0000.0001) // =======================================================
(PID.TID 0000.0001) %MON g__time_tsnumber             =                     1
(PID.TID 0000.0001) %MON g__time_secondsf             =   4.3200000000000E+04
(PID.TID 0000.0001) %MON g__dynstat_g_eta_max         =   0.0000000000000E+00
(PID.TID 0000.0001) %MON g__dynstat_g_eta_min         =   0.0000000000000E+00
(PID.TID 0000.0001) %MON g__dynstat_g_eta_mean        =   0.0000000000000E+00
(PID.TID 0000.0001) %MON g__dynstat_g_eta_sd          =   0.0000000000000E+00
(PID.TID 0000.0001) %MON g__dynstat_g_eta_del2        =   0.0000000000000E+00
(PID.TID 0000.0001) %MON g__dynstat_g_uvel_max        =   0.0000000000000E+00
(PID.TID 0000.0001) %MON g__dynstat_g_uvel_min        =   0.0000000000000E+00
(PID.TID 0000.0001) %MON g__dynstat_g_uvel_mean       =   0.0000000000000E+00
(PID.TID 0000.0001) %MON g__dynstat_g_uvel_sd         =   0.0000000000000E+00
(PID.TID 0000.0001) %MON g__dynstat_g_uvel_del2       =   0.0000000000000E+00
(PID.TID 0000.0001) %MON g__dynstat_g_vvel_max        =   0.0000000000000E+00
(PID.TID 0000.0001) %MON g__dynstat_g_vvel_min        =   0.0000000000000E+00
(PID.TID 0000.0001) %MON g__dynstat_g_vvel_mean       =   0.0000000000000E+00
(PID.TID 0000.0001) %MON g__dynstat_g_vvel_sd         =   0.0000000000000E+00
(PID.TID 0000.0001) %MON g__dynstat_g_vvel_del2       =   0.0000000000000E+00
(PID.TID 0000.0001) %MON g__dynstat_g_wvel_max        =   0.0000000000000E+00
(PID.TID 0000.0001) %MON g__dynstat_g_wvel_min        =   0.0000000000000E+00
(PID.TID 0000.0001) %MON g__dynstat_g_wvel_mean       =   0.0000000000000E+00
(PID.TID 0000.0001) %MON g__dynstat_g_wvel_sd         =   0.0000000000000E+00
(PID.TID 0000.0001) %MON g__dynstat_g_wvel_del2       =   0.0000000000000E+00
(PID.TID 0000.0001) %MON g__dynstat_g_theta_max       =   0.0000000000000E+00
(PID.TID 0000.0001) %MON g__dynstat_g_theta_min       =   0.0000000000000E+00
(PID.TID 0000.0001) %MON g__dynstat_g_theta_mean      =   0.0000000000000E+00
(PID.TID 0000.0001) %MON g__dynstat_g_theta_sd        =   0.0000000000000E+00
(PID.TID 0000.0001) %MON g__dynstat_g_theta_del2      =   0.0000000000000E+00
(PID.TID 0000.0001) %MON g__dynstat_g_salt_max        =   0.0000000000000E+00
(PID.TID 0000.0001) %MON g__dynstat_g_salt_min        =   0.0000000000000E+00
(PID.TID 0000.0001) %MON g__dynstat_g_salt_mean       =   0.0000000000000E+00
(PID.TID 0000.0001) %MON g__dynstat_g_salt_sd         =   0.0000000000000E+00
(PID.TID 0000.0001) %MON g__dynstat_g_salt_del2       =   0.0000000000000E+00
(PID.TID 0000.0001) %MON g__dynstat_g_sst_max         =   0.0000000000000E+00
(PID.TID 0000.0001) %MON g__dynstat_g_sst_min         =   0.0000000000000E+00
(PID.TID 0000.0001) %MON g__dynstat_g_sst_mean        =   0.0000000000000E+00
(PID.TID 0000.0001) %MON g__dynstat_g_sst_sd          =   0.0000000000000E+00
(PID.TID 0000.0001) %MON g__dynstat_g_sst_del2        =   0.0000000000000E+00
(PID.TID 0000.0001) %MON g__dynstat_g_sss_max         =   0.0000000000000E+00
(PID.TID 0000.0001) %MON g__dynstat_g_sss_min         =   0.0000000000000E+00
(PID.TID 0000.0001) %MON g__dynstat_g_sss_mean        =   0.0000000000000E+00
(PID.TID 0000.0001) %MON g__dynstat_g_sss_sd          =   0.0000000000000E+00
(PID.TID 0000.0001) %MON g__dynstat_g_sss_del2        =   0.0000000000000E+00
(PID.TID 0000.0001) %MON g__extforcing_g_qnet_max     =   0.0000000000000E+00
(PID.TID 0000.0001) %MON g__extforcing_g_qnet_min     =   0.0000000000000E+00
(PID.TID 0000.0001) %MON g__extforcing_g_qnet_mean    =   0.0000000000000E+00
(PID.TID 0000.0001) %MON g__extforcing_g_qnet_sd      =   0.0000000000000E+00
(PID.TID 0000.0001) %MON g__extforcing_g_qnet_del2    =   0.0000000000000E+00
(PID.TID 0000.0001) %MON g__extforcing_g_empmr_max    =   0.0000000000000E+00
(PID.TID 0000.0001) %MON g__extforcing_g_empmr_min    =   0.0000000000000E+00
(PID.TID 0000.0001) %MON g__extforcing_g_empmr_mean   =   0.0000000000000E+00
(PID.TID 0000.0001) %MON g__extforcing_g_empmr_sd     =   0.0000000000000E+00
(PID.TID 0000.0001) %MON g__extforcing_g_empmr_del2   =   0.0000000000000E+00
(PID.TID 0000.0001) %MON g__extforcing_g_fu_max       =   0.0000000000000E+00
(PID.TID 0000.0001) %MON g__extforcing_g_fu_min       =   0.0000000000000E+00
(PID.TID 0000.0001) %MON g__extforcing_g_fu_mean      =   0.0000000000000E+00
(PID.TID 0000.0001) %MON g__extforcing_g_fu_sd        =   0.0000000000000E+00
(PID.TID 0000.0001) %MON g__extforcing_g_fu_del2      =   0.0000000000000E+00
(PID.TID 0000.0001) %MON g__extforcing_g_fv_max       =   0.0000000000000E+00
(PID.TID 0000.0001) %MON g__extforcing_g_fv_min       =   0.0000000000000E+00
(PID.TID 0000.0001) %MON g__extforcing_g_fv_mean      =   0.0000000000000E+00
(PID.TID 0000.0001) %MON g__extforcing_g_fv_sd        =   0.0000000000000E+00
(PID.TID 0000.0001) %MON g__extforcing_g_fv_del2      =   0.0000000000000E+00
(PID.TID 0000.0001) %MON g__g_vcfl_g_uvel_max         =   0.0000000000000E+00
(PID.TID 0000.0001) %MON g__g_vcfl_g_vvel_max         =   0.0000000000000E+00
(PID.TID 0000.0001) %MON g__g_vcfl_g_wvel_max         =   0.0000000000000E+00
(PID.TID 0000.0001) %MON g__g_vcfl_g_W_hf_max         =   0.0000000000000E+00
(PID.TID 0000.0001) // =======================================================
(PID.TID 0000.0001) // End MONITOR dynamic field statistics
(PID.TID 0000.0001) // =======================================================
 cg2d: Sum(rhs),rhsMax =   0.00000000000000E+00  0.00000000000000E+00
 cg2d: Sum(rhs),rhsMax =   2.26207941267376E-14  5.05307478634995E+00
(PID.TID 0000.0001) // =======================================================
(PID.TID 0000.0001) // Begin MONITOR dynamic field statistics
(PID.TID 0000.0001) // =======================================================
(PID.TID 0000.0001) %MON g__time_tsnumber             =                     2
(PID.TID 0000.0001) %MON g__time_secondsf             =   8.6400000000000E+04
(PID.TID 0000.0001) %MON g__dynstat_g_eta_max         =   0.0000000000000E+00
(PID.TID 0000.0001) %MON g__dynstat_g_eta_min         =   0.0000000000000E+00
(PID.TID 0000.0001) %MON g__dynstat_g_eta_mean        =   0.0000000000000E+00
(PID.TID 0000.0001) %MON g__dynstat_g_eta_sd          =   0.0000000000000E+00
(PID.TID 0000.0001) %MON g__dynstat_g_eta_del2        =   0.0000000000000E+00
(PID.TID 0000.0001) %MON g__dynstat_g_uvel_max        =   0.0000000000000E+00
(PID.TID 0000.0001) %MON g__dynstat_g_uvel_min        =   0.0000000000000E+00
(PID.TID 0000.0001) %MON g__dynstat_g_uvel_mean       =   0.0000000000000E+00
(PID.TID 0000.0001) %MON g__dynstat_g_uvel_sd         =   0.0000000000000E+00
(PID.TID 0000.0001) %MON g__dynstat_g_uvel_del2       =   0.0000000000000E+00
(PID.TID 0000.0001) %MON g__dynstat_g_vvel_max        =   0.0000000000000E+00
(PID.TID 0000.0001) %MON g__dynstat_g_vvel_min        =   0.0000000000000E+00
(PID.TID 0000.0001) %MON g__dynstat_g_vvel_mean       =   0.0000000000000E+00
(PID.TID 0000.0001) %MON g__dynstat_g_vvel_sd         =   0.0000000000000E+00
(PID.TID 0000.0001) %MON g__dynstat_g_vvel_del2       =   0.0000000000000E+00
(PID.TID 0000.0001) %MON g__dynstat_g_wvel_max        =   0.0000000000000E+00
(PID.TID 0000.0001) %MON g__dynstat_g_wvel_min        =   0.0000000000000E+00
(PID.TID 0000.0001) %MON g__dynstat_g_wvel_mean       =   0.0000000000000E+00
(PID.TID 0000.0001) %MON g__dynstat_g_wvel_sd         =   0.0000000000000E+00
(PID.TID 0000.0001) %MON g__dynstat_g_wvel_del2       =   0.0000000000000E+00
(PID.TID 0000.0001) %MON g__dynstat_g_theta_max       =   0.0000000000000E+00
(PID.TID 0000.0001) %MON g__dynstat_g_theta_min       =   0.0000000000000E+00
(PID.TID 0000.0001) %MON g__dynstat_g_theta_mean      =   0.0000000000000E+00
(PID.TID 0000.0001) %MON g__dynstat_g_theta_sd        =   0.0000000000000E+00
(PID.TID 0000.0001) %MON g__dynstat_g_theta_del2      =   0.0000000000000E+00
(PID.TID 0000.0001) %MON g__dynstat_g_salt_max        =   0.0000000000000E+00
(PID.TID 0000.0001) %MON g__dynstat_g_salt_min        =   0.0000000000000E+00
(PID.TID 0000.0001) %MON g__dynstat_g_salt_mean       =   0.0000000000000E+00
(PID.TID 0000.0001) %MON g__dynstat_g_salt_sd         =   0.0000000000000E+00
(PID.TID 0000.0001) %MON g__dynstat_g_salt_del2       =   0.0000000000000E+00
(PID.TID 0000.0001) %MON g__dynstat_g_sst_max         =   0.0000000000000E+00
(PID.TID 0000.0001) %MON g__dynstat_g_sst_min         =   0.0000000000000E+00
(PID.TID 0000.0001) %MON g__dynstat_g_sst_mean        =   0.0000000000000E+00
(PID.TID 0000.0001) %MON g__dynstat_g_sst_sd          =   0.0000000000000E+00
(PID.TID 0000.0001) %MON g__dynstat_g_sst_del2        =   0.0000000000000E+00
(PID.TID 0000.0001) %MON g__dynstat_g_sss_max         =   0.0000000000000E+00
(PID.TID 0000.0001) %MON g__dynstat_g_sss_min         =   0.0000000000000E+00
(PID.TID 0000.0001) %MON g__dynstat_g_sss_mean        =   0.0000000000000E+00
(PID.TID 0000.0001) %MON g__dynstat_g_sss_sd          =   0.0000000000000E+00
(PID.TID 0000.0001) %MON g__dynstat_g_sss_del2        =   0.0000000000000E+00
(PID.TID 0000.0001) %MON g__extforcing_g_qnet_max     =   0.0000000000000E+00
(PID.TID 0000.0001) %MON g__extforcing_g_qnet_min     =   0.0000000000000E+00
(PID.TID 0000.0001) %MON g__extforcing_g_qnet_mean    =   0.0000000000000E+00
(PID.TID 0000.0001) %MON g__extforcing_g_qnet_sd      =   0.0000000000000E+00
(PID.TID 0000.0001) %MON g__extforcing_g_qnet_del2    =   0.0000000000000E+00
(PID.TID 0000.0001) %MON g__extforcing_g_empmr_max    =   0.0000000000000E+00
(PID.TID 0000.0001) %MON g__extforcing_g_empmr_min    =   0.0000000000000E+00
(PID.TID 0000.0001) %MON g__extforcing_g_empmr_mean   =   0.0000000000000E+00
(PID.TID 0000.0001) %MON g__extforcing_g_empmr_sd     =   0.0000000000000E+00
(PID.TID 0000.0001) %MON g__extforcing_g_empmr_del2   =   0.0000000000000E+00
(PID.TID 0000.0001) %MON g__extforcing_g_fu_max       =   0.0000000000000E+00
(PID.TID 0000.0001) %MON g__extforcing_g_fu_min       =   0.0000000000000E+00
(PID.TID 0000.0001) %MON g__extforcing_g_fu_mean      =   0.0000000000000E+00
(PID.TID 0000.0001) %MON g__extforcing_g_fu_sd        =   0.0000000000000E+00
(PID.TID 0000.0001) %MON g__extforcing_g_fu_del2      =   0.0000000000000E+00
(PID.TID 0000.0001) %MON g__extforcing_g_fv_max       =   0.0000000000000E+00
(PID.TID 0000.0001) %MON g__extforcing_g_fv_min       =   0.0000000000000E+00
(PID.TID 0000.0001) %MON g__extforcing_g_fv_mean      =   0.0000000000000E+00
(PID.TID 0000.0001) %MON g__extforcing_g_fv_sd        =   0.0000000000000E+00
(PID.TID 0000.0001) %MON g__extforcing_g_fv_del2      =   0.0000000000000E+00
(PID.TID 0000.0001) %MON g__g_vcfl_g_uvel_max         =   0.0000000000000E+00
(PID.TID 0000.0001) %MON g__g_vcfl_g_vvel_max         =   0.0000000000000E+00
(PID.TID 0000.0001) %MON g__g_vcfl_g_wvel_max         =   0.0000000000000E+00
(PID.TID 0000.0001) %MON g__g_vcfl_g_W_hf_max         =   0.0000000000000E+00
(PID.TID 0000.0001) // =======================================================
(PID.TID 0000.0001) // End MONITOR dynamic field statistics
(PID.TID 0000.0001) // =======================================================
 cg2d: Sum(rhs),rhsMax =   0.00000000000000E+00  0.00000000000000E+00
 cg2d: Sum(rhs),rhsMax =   8.00089161590023E-14  6.32564766002462E+00
(PID.TID 0000.0001) // =======================================================
(PID.TID 0000.0001) // Begin MONITOR dynamic field statistics
(PID.TID 0000.0001) // =======================================================
(PID.TID 0000.0001) %MON g__time_tsnumber             =                     3
(PID.TID 0000.0001) %MON g__time_secondsf             =   1.2960000000000E+05
(PID.TID 0000.0001) %MON g__dynstat_g_eta_max         =   0.0000000000000E+00
(PID.TID 0000.0001) %MON g__dynstat_g_eta_min         =   0.0000000000000E+00
(PID.TID 0000.0001) %MON g__dynstat_g_eta_mean        =   0.0000000000000E+00
(PID.TID 0000.0001) %MON g__dynstat_g_eta_sd          =   0.0000000000000E+00
(PID.TID 0000.0001) %MON g__dynstat_g_eta_del2        =   0.0000000000000E+00
(PID.TID 0000.0001) %MON g__dynstat_g_uvel_max        =   0.0000000000000E+00
(PID.TID 0000.0001) %MON g__dynstat_g_uvel_min        =   0.0000000000000E+00
(PID.TID 0000.0001) %MON g__dynstat_g_uvel_mean       =   0.0000000000000E+00
(PID.TID 0000.0001) %MON g__dynstat_g_uvel_sd         =   0.0000000000000E+00
(PID.TID 0000.0001) %MON g__dynstat_g_uvel_del2       =   0.0000000000000E+00
(PID.TID 0000.0001) %MON g__dynstat_g_vvel_max        =   0.0000000000000E+00
(PID.TID 0000.0001) %MON g__dynstat_g_vvel_min        =   0.0000000000000E+00
(PID.TID 0000.0001) %MON g__dynstat_g_vvel_mean       =   0.0000000000000E+00
(PID.TID 0000.0001) %MON g__dynstat_g_vvel_sd         =   0.0000000000000E+00
(PID.TID 0000.0001) %MON g__dynstat_g_vvel_del2       =   0.0000000000000E+00
(PID.TID 0000.0001) %MON g__dynstat_g_wvel_max        =   0.0000000000000E+00
(PID.TID 0000.0001) %MON g__dynstat_g_wvel_min        =   0.0000000000000E+00
(PID.TID 0000.0001) %MON g__dynstat_g_wvel_mean       =   0.0000000000000E+00
(PID.TID 0000.0001) %MON g__dynstat_g_wvel_sd         =   0.0000000000000E+00
(PID.TID 0000.0001) %MON g__dynstat_g_wvel_del2       =   0.0000000000000E+00
(PID.TID 0000.0001) %MON g__dynstat_g_theta_max       =   0.0000000000000E+00
(PID.TID 0000.0001) %MON g__dynstat_g_theta_min       =   0.0000000000000E+00
(PID.TID 0000.0001) %MON g__dynstat_g_theta_mean      =   0.0000000000000E+00
(PID.TID 0000.0001) %MON g__dynstat_g_theta_sd        =   0.0000000000000E+00
(PID.TID 0000.0001) %MON g__dynstat_g_theta_del2      =   0.0000000000000E+00
(PID.TID 0000.0001) %MON g__dynstat_g_salt_max        =   0.0000000000000E+00
(PID.TID 0000.0001) %MON g__dynstat_g_salt_min        =   0.0000000000000E+00
(PID.TID 0000.0001) %MON g__dynstat_g_salt_mean       =   0.0000000000000E+00
(PID.TID 0000.0001) %MON g__dynstat_g_salt_sd         =   0.0000000000000E+00
(PID.TID 0000.0001) %MON g__dynstat_g_salt_del2       =   0.0000000000000E+00
(PID.TID 0000.0001) %MON g__dynstat_g_sst_max         =   0.0000000000000E+00
(PID.TID 0000.0001) %MON g__dynstat_g_sst_min         =   0.0000000000000E+00
(PID.TID 0000.0001) %MON g__dynstat_g_sst_mean        =   0.0000000000000E+00
(PID.TID 0000.0001) %MON g__dynstat_g_sst_sd          =   0.0000000000000E+00
(PID.TID 0000.0001) %MON g__dynstat_g_sst_del2        =   0.0000000000000E+00
(PID.TID 0000.0001) %MON g__dynstat_g_sss_max         =   0.0000000000000E+00
(PID.TID 0000.0001) %MON g__dynstat_g_sss_min         =   0.0000000000000E+00
(PID.TID 0000.0001) %MON g__dynstat_g_sss_mean        =   0.0000000000000E+00
(PID.TID 0000.0001) %MON g__dynstat_g_sss_sd          =   0.0000000000000E+00
(PID.TID 0000.0001) %MON g__dynstat_g_sss_del2        =   0.0000000000000E+00
(PID.TID 0000.0001) %MON g__extforcing_g_qnet_max     =   0.0000000000000E+00
(PID.TID 0000.0001) %MON g__extforcing_g_qnet_min     =   0.0000000000000E+00
(PID.TID 0000.0001) %MON g__extforcing_g_qnet_mean    =   0.0000000000000E+00
(PID.TID 0000.0001) %MON g__extforcing_g_qnet_sd      =   0.0000000000000E+00
(PID.TID 0000.0001) %MON g__extforcing_g_qnet_del2    =   0.0000000000000E+00
(PID.TID 0000.0001) %MON g__extforcing_g_empmr_max    =   0.0000000000000E+00
(PID.TID 0000.0001) %MON g__extforcing_g_empmr_min    =   0.0000000000000E+00
(PID.TID 0000.0001) %MON g__extforcing_g_empmr_mean   =   0.0000000000000E+00
(PID.TID 0000.0001) %MON g__extforcing_g_empmr_sd     =   0.0000000000000E+00
(PID.TID 0000.0001) %MON g__extforcing_g_empmr_del2   =   0.0000000000000E+00
(PID.TID 0000.0001) %MON g__extforcing_g_fu_max       =   0.0000000000000E+00
(PID.TID 0000.0001) %MON g__extforcing_g_fu_min       =   0.0000000000000E+00
(PID.TID 0000.0001) %MON g__extforcing_g_fu_mean      =   0.0000000000000E+00
(PID.TID 0000.0001) %MON g__extforcing_g_fu_sd        =   0.0000000000000E+00
(PID.TID 0000.0001) %MON g__extforcing_g_fu_del2      =   0.0000000000000E+00
(PID.TID 0000.0001) %MON g__extforcing_g_fv_max       =   0.0000000000000E+00
(PID.TID 0000.0001) %MON g__extforcing_g_fv_min       =   0.0000000000000E+00
(PID.TID 0000.0001) %MON g__extforcing_g_fv_mean      =   0.0000000000000E+00
(PID.TID 0000.0001) %MON g__extforcing_g_fv_sd        =   0.0000000000000E+00
(PID.TID 0000.0001) %MON g__extforcing_g_fv_del2      =   0.0000000000000E+00
(PID.TID 0000.0001) %MON g__g_vcfl_g_uvel_max         =   0.0000000000000E+00
(PID.TID 0000.0001) %MON g__g_vcfl_g_vvel_max         =   0.0000000000000E+00
(PID.TID 0000.0001) %MON g__g_vcfl_g_wvel_max         =   0.0000000000000E+00
(PID.TID 0000.0001) %MON g__g_vcfl_g_W_hf_max         =   0.0000000000000E+00
(PID.TID 0000.0001) // =======================================================
(PID.TID 0000.0001) // End MONITOR dynamic field statistics
(PID.TID 0000.0001) // =======================================================
 cg2d: Sum(rhs),rhsMax =   0.00000000000000E+00  0.00000000000000E+00
 cg2d: Sum(rhs),rhsMax =   5.81167058921750E-14  6.76202107413719E+00
(PID.TID 0000.0001) // =======================================================
(PID.TID 0000.0001) // Begin MONITOR dynamic field statistics
(PID.TID 0000.0001) // =======================================================
(PID.TID 0000.0001) %MON g__time_tsnumber             =                     4
(PID.TID 0000.0001) %MON g__time_secondsf             =   1.7280000000000E+05
(PID.TID 0000.0001) %MON g__dynstat_g_eta_max         =   0.0000000000000E+00
(PID.TID 0000.0001) %MON g__dynstat_g_eta_min         =   0.0000000000000E+00
(PID.TID 0000.0001) %MON g__dynstat_g_eta_mean        =   0.0000000000000E+00
(PID.TID 0000.0001) %MON g__dynstat_g_eta_sd          =   0.0000000000000E+00
(PID.TID 0000.0001) %MON g__dynstat_g_eta_del2        =   0.0000000000000E+00
(PID.TID 0000.0001) %MON g__dynstat_g_uvel_max        =   0.0000000000000E+00
(PID.TID 0000.0001) %MON g__dynstat_g_uvel_min        =   0.0000000000000E+00
(PID.TID 0000.0001) %MON g__dynstat_g_uvel_mean       =   0.0000000000000E+00
(PID.TID 0000.0001) %MON g__dynstat_g_uvel_sd         =   0.0000000000000E+00
(PID.TID 0000.0001) %MON g__dynstat_g_uvel_del2       =   0.0000000000000E+00
(PID.TID 0000.0001) %MON g__dynstat_g_vvel_max        =   0.0000000000000E+00
(PID.TID 0000.0001) %MON g__dynstat_g_vvel_min        =   0.0000000000000E+00
(PID.TID 0000.0001) %MON g__dynstat_g_vvel_mean       =   0.0000000000000E+00
(PID.TID 0000.0001) %MON g__dynstat_g_vvel_sd         =   0.0000000000000E+00
(PID.TID 0000.0001) %MON g__dynstat_g_vvel_del2       =   0.0000000000000E+00
(PID.TID 0000.0001) %MON g__dynstat_g_wvel_max        =   0.0000000000000E+00
(PID.TID 0000.0001) %MON g__dynstat_g_wvel_min        =   0.0000000000000E+00
(PID.TID 0000.0001) %MON g__dynstat_g_wvel_mean       =   0.0000000000000E+00
(PID.TID 0000.0001) %MON g__dynstat_g_wvel_sd         =   0.0000000000000E+00
(PID.TID 0000.0001) %MON g__dynstat_g_wvel_del2       =   0.0000000000000E+00
(PID.TID 0000.0001) %MON g__dynstat_g_theta_max       =   0.0000000000000E+00
(PID.TID 0000.0001) %MON g__dynstat_g_theta_min       =   0.0000000000000E+00
(PID.TID 0000.0001) %MON g__dynstat_g_theta_mean      =   0.0000000000000E+00
(PID.TID 0000.0001) %MON g__dynstat_g_theta_sd        =   0.0000000000000E+00
(PID.TID 0000.0001) %MON g__dynstat_g_theta_del2      =   0.0000000000000E+00
(PID.TID 0000.0001) %MON g__dynstat_g_salt_max        =   0.0000000000000E+00
(PID.TID 0000.0001) %MON g__dynstat_g_salt_min        =   0.0000000000000E+00
(PID.TID 0000.0001) %MON g__dynstat_g_salt_mean       =   0.0000000000000E+00
(PID.TID 0000.0001) %MON g__dynstat_g_salt_sd         =   0.0000000000000E+00
(PID.TID 0000.0001) %MON g__dynstat_g_salt_del2       =   0.0000000000000E+00
(PID.TID 0000.0001) %MON g__dynstat_g_sst_max         =   0.0000000000000E+00
(PID.TID 0000.0001) %MON g__dynstat_g_sst_min         =   0.0000000000000E+00
(PID.TID 0000.0001) %MON g__dynstat_g_sst_mean        =   0.0000000000000E+00
(PID.TID 0000.0001) %MON g__dynstat_g_sst_sd          =   0.0000000000000E+00
(PID.TID 0000.0001) %MON g__dynstat_g_sst_del2        =   0.0000000000000E+00
(PID.TID 0000.0001) %MON g__dynstat_g_sss_max         =   0.0000000000000E+00
(PID.TID 0000.0001) %MON g__dynstat_g_sss_min         =   0.0000000000000E+00
(PID.TID 0000.0001) %MON g__dynstat_g_sss_mean        =   0.0000000000000E+00
(PID.TID 0000.0001) %MON g__dynstat_g_sss_sd          =   0.0000000000000E+00
(PID.TID 0000.0001) %MON g__dynstat_g_sss_del2        =   0.0000000000000E+00
(PID.TID 0000.0001) %MON g__extforcing_g_qnet_max     =   0.0000000000000E+00
(PID.TID 0000.0001) %MON g__extforcing_g_qnet_min     =   0.0000000000000E+00
(PID.TID 0000.0001) %MON g__extforcing_g_qnet_mean    =   0.0000000000000E+00
(PID.TID 0000.0001) %MON g__extforcing_g_qnet_sd      =   0.0000000000000E+00
(PID.TID 0000.0001) %MON g__extforcing_g_qnet_del2    =   0.0000000000000E+00
(PID.TID 0000.0001) %MON g__extforcing_g_empmr_max    =   0.0000000000000E+00
(PID.TID 0000.0001) %MON g__extforcing_g_empmr_min    =   0.0000000000000E+00
(PID.TID 0000.0001) %MON g__extforcing_g_empmr_mean   =   0.0000000000000E+00
(PID.TID 0000.0001) %MON g__extforcing_g_empmr_sd     =   0.0000000000000E+00
(PID.TID 0000.0001) %MON g__extforcing_g_empmr_del2   =   0.0000000000000E+00
(PID.TID 0000.0001) %MON g__extforcing_g_fu_max       =   0.0000000000000E+00
(PID.TID 0000.0001) %MON g__extforcing_g_fu_min       =   0.0000000000000E+00
(PID.TID 0000.0001) %MON g__extforcing_g_fu_mean      =   0.0000000000000E+00
(PID.TID 0000.0001) %MON g__extforcing_g_fu_sd        =   0.0000000000000E+00
(PID.TID 0000.0001) %MON g__extforcing_g_fu_del2      =   0.0000000000000E+00
(PID.TID 0000.0001) %MON g__extforcing_g_fv_max       =   0.0000000000000E+00
(PID.TID 0000.0001) %MON g__extforcing_g_fv_min       =   0.0000000000000E+00
(PID.TID 0000.0001) %MON g__extforcing_g_fv_mean      =   0.0000000000000E+00
(PID.TID 0000.0001) %MON g__extforcing_g_fv_sd        =   0.0000000000000E+00
(PID.TID 0000.0001) %MON g__extforcing_g_fv_del2      =   0.0000000000000E+00
(PID.TID 0000.0001) %MON g__g_vcfl_g_uvel_max         =   0.0000000000000E+00
(PID.TID 0000.0001) %MON g__g_vcfl_g_vvel_max         =   0.0000000000000E+00
(PID.TID 0000.0001) %MON g__g_vcfl_g_wvel_max         =   0.0000000000000E+00
(PID.TID 0000.0001) %MON g__g_vcfl_g_W_hf_max         =   0.0000000000000E+00
(PID.TID 0000.0001) // =======================================================
(PID.TID 0000.0001) // End MONITOR dynamic field statistics
(PID.TID 0000.0001) // =======================================================
 cg2d: Sum(rhs),rhsMax =   0.00000000000000E+00  0.00000000000000E+00
 cg2d: Sum(rhs),rhsMax =   2.58022769816790E-14  6.91128535917371E+00
(PID.TID 0000.0001) // =======================================================
(PID.TID 0000.0001) // Begin MONITOR dynamic field statistics
(PID.TID 0000.0001) // =======================================================
(PID.TID 0000.0001) %MON g__time_tsnumber             =                     5
(PID.TID 0000.0001) %MON g__time_secondsf             =   2.1600000000000E+05
(PID.TID 0000.0001) %MON g__dynstat_g_eta_max         =   0.0000000000000E+00
(PID.TID 0000.0001) %MON g__dynstat_g_eta_min         =   0.0000000000000E+00
(PID.TID 0000.0001) %MON g__dynstat_g_eta_mean        =   0.0000000000000E+00
(PID.TID 0000.0001) %MON g__dynstat_g_eta_sd          =   0.0000000000000E+00
(PID.TID 0000.0001) %MON g__dynstat_g_eta_del2        =   0.0000000000000E+00
(PID.TID 0000.0001) %MON g__dynstat_g_uvel_max        =   0.0000000000000E+00
(PID.TID 0000.0001) %MON g__dynstat_g_uvel_min        =   0.0000000000000E+00
(PID.TID 0000.0001) %MON g__dynstat_g_uvel_mean       =   0.0000000000000E+00
(PID.TID 0000.0001) %MON g__dynstat_g_uvel_sd         =   0.0000000000000E+00
(PID.TID 0000.0001) %MON g__dynstat_g_uvel_del2       =   0.0000000000000E+00
(PID.TID 0000.0001) %MON g__dynstat_g_vvel_max        =   0.0000000000000E+00
(PID.TID 0000.0001) %MON g__dynstat_g_vvel_min        =   0.0000000000000E+00
(PID.TID 0000.0001) %MON g__dynstat_g_vvel_mean       =   0.0000000000000E+00
(PID.TID 0000.0001) %MON g__dynstat_g_vvel_sd         =   0.0000000000000E+00
(PID.TID 0000.0001) %MON g__dynstat_g_vvel_del2       =   0.0000000000000E+00
(PID.TID 0000.0001) %MON g__dynstat_g_wvel_max        =   0.0000000000000E+00
(PID.TID 0000.0001) %MON g__dynstat_g_wvel_min        =   0.0000000000000E+00
(PID.TID 0000.0001) %MON g__dynstat_g_wvel_mean       =   0.0000000000000E+00
(PID.TID 0000.0001) %MON g__dynstat_g_wvel_sd         =   0.0000000000000E+00
(PID.TID 0000.0001) %MON g__dynstat_g_wvel_del2       =   0.0000000000000E+00
(PID.TID 0000.0001) %MON g__dynstat_g_theta_max       =   0.0000000000000E+00
(PID.TID 0000.0001) %MON g__dynstat_g_theta_min       =   0.0000000000000E+00
(PID.TID 0000.0001) %MON g__dynstat_g_theta_mean      =   0.0000000000000E+00
(PID.TID 0000.0001) %MON g__dynstat_g_theta_sd        =   0.0000000000000E+00
(PID.TID 0000.0001) %MON g__dynstat_g_theta_del2      =   0.0000000000000E+00
(PID.TID 0000.0001) %MON g__dynstat_g_salt_max        =   0.0000000000000E+00
(PID.TID 0000.0001) %MON g__dynstat_g_salt_min        =   0.0000000000000E+00
(PID.TID 0000.0001) %MON g__dynstat_g_salt_mean       =   0.0000000000000E+00
(PID.TID 0000.0001) %MON g__dynstat_g_salt_sd         =   0.0000000000000E+00
(PID.TID 0000.0001) %MON g__dynstat_g_salt_del2       =   0.0000000000000E+00
(PID.TID 0000.0001) %MON g__dynstat_g_sst_max         =   0.0000000000000E+00
(PID.TID 0000.0001) %MON g__dynstat_g_sst_min         =   0.0000000000000E+00
(PID.TID 0000.0001) %MON g__dynstat_g_sst_mean        =   0.0000000000000E+00
(PID.TID 0000.0001) %MON g__dynstat_g_sst_sd          =   0.0000000000000E+00
(PID.TID 0000.0001) %MON g__dynstat_g_sst_del2        =   0.0000000000000E+00
(PID.TID 0000.0001) %MON g__dynstat_g_sss_max         =   0.0000000000000E+00
(PID.TID 0000.0001) %MON g__dynstat_g_sss_min         =   0.0000000000000E+00
(PID.TID 0000.0001) %MON g__dynstat_g_sss_mean        =   0.0000000000000E+00
(PID.TID 0000.0001) %MON g__dynstat_g_sss_sd          =   0.0000000000000E+00
(PID.TID 0000.0001) %MON g__dynstat_g_sss_del2        =   0.0000000000000E+00
(PID.TID 0000.0001) %MON g__extforcing_g_qnet_max     =   0.0000000000000E+00
(PID.TID 0000.0001) %MON g__extforcing_g_qnet_min     =   0.0000000000000E+00
(PID.TID 0000.0001) %MON g__extforcing_g_qnet_mean    =   0.0000000000000E+00
(PID.TID 0000.0001) %MON g__extforcing_g_qnet_sd      =   0.0000000000000E+00
(PID.TID 0000.0001) %MON g__extforcing_g_qnet_del2    =   0.0000000000000E+00
(PID.TID 0000.0001) %MON g__extforcing_g_empmr_max    =   0.0000000000000E+00
(PID.TID 0000.0001) %MON g__extforcing_g_empmr_min    =   0.0000000000000E+00
(PID.TID 0000.0001) %MON g__extforcing_g_empmr_mean   =   0.0000000000000E+00
(PID.TID 0000.0001) %MON g__extforcing_g_empmr_sd     =   0.0000000000000E+00
(PID.TID 0000.0001) %MON g__extforcing_g_empmr_del2   =   0.0000000000000E+00
(PID.TID 0000.0001) %MON g__extforcing_g_fu_max       =   0.0000000000000E+00
(PID.TID 0000.0001) %MON g__extforcing_g_fu_min       =   0.0000000000000E+00
(PID.TID 0000.0001) %MON g__extforcing_g_fu_mean      =   0.0000000000000E+00
(PID.TID 0000.0001) %MON g__extforcing_g_fu_sd        =   0.0000000000000E+00
(PID.TID 0000.0001) %MON g__extforcing_g_fu_del2      =   0.0000000000000E+00
(PID.TID 0000.0001) %MON g__extforcing_g_fv_max       =   0.0000000000000E+00
(PID.TID 0000.0001) %MON g__extforcing_g_fv_min       =   0.0000000000000E+00
(PID.TID 0000.0001) %MON g__extforcing_g_fv_mean      =   0.0000000000000E+00
(PID.TID 0000.0001) %MON g__extforcing_g_fv_sd        =   0.0000000000000E+00
(PID.TID 0000.0001) %MON g__extforcing_g_fv_del2      =   0.0000000000000E+00
(PID.TID 0000.0001) %MON g__g_vcfl_g_uvel_max         =   0.0000000000000E+00
(PID.TID 0000.0001) %MON g__g_vcfl_g_vvel_max         =   0.0000000000000E+00
(PID.TID 0000.0001) %MON g__g_vcfl_g_wvel_max         =   0.0000000000000E+00
(PID.TID 0000.0001) %MON g__g_vcfl_g_W_hf_max         =   0.0000000000000E+00
(PID.TID 0000.0001) // =======================================================
(PID.TID 0000.0001) // End MONITOR dynamic field statistics
(PID.TID 0000.0001) // =======================================================
 cg2d: Sum(rhs),rhsMax =   0.00000000000000E+00  0.00000000000000E+00
 cg2d: Sum(rhs),rhsMax =   7.92421683826205E-14  6.96038704691243E+00
(PID.TID 0000.0001) // =======================================================
(PID.TID 0000.0001) // Begin MONITOR dynamic field statistics
(PID.TID 0000.0001) // =======================================================
(PID.TID 0000.0001) %MON g__time_tsnumber             =                     6
(PID.TID 0000.0001) %MON g__time_secondsf             =   2.5920000000000E+05
(PID.TID 0000.0001) %MON g__dynstat_g_eta_max         =   0.0000000000000E+00
(PID.TID 0000.0001) %MON g__dynstat_g_eta_min         =   0.0000000000000E+00
(PID.TID 0000.0001) %MON g__dynstat_g_eta_mean        =   0.0000000000000E+00
(PID.TID 0000.0001) %MON g__dynstat_g_eta_sd          =   0.0000000000000E+00
(PID.TID 0000.0001) %MON g__dynstat_g_eta_del2        =   0.0000000000000E+00
(PID.TID 0000.0001) %MON g__dynstat_g_uvel_max        =   0.0000000000000E+00
(PID.TID 0000.0001) %MON g__dynstat_g_uvel_min        =   0.0000000000000E+00
(PID.TID 0000.0001) %MON g__dynstat_g_uvel_mean       =   0.0000000000000E+00
(PID.TID 0000.0001) %MON g__dynstat_g_uvel_sd         =   0.0000000000000E+00
(PID.TID 0000.0001) %MON g__dynstat_g_uvel_del2       =   0.0000000000000E+00
(PID.TID 0000.0001) %MON g__dynstat_g_vvel_max        =   0.0000000000000E+00
(PID.TID 0000.0001) %MON g__dynstat_g_vvel_min        =   0.0000000000000E+00
(PID.TID 0000.0001) %MON g__dynstat_g_vvel_mean       =   0.0000000000000E+00
(PID.TID 0000.0001) %MON g__dynstat_g_vvel_sd         =   0.0000000000000E+00
(PID.TID 0000.0001) %MON g__dynstat_g_vvel_del2       =   0.0000000000000E+00
(PID.TID 0000.0001) %MON g__dynstat_g_wvel_max        =   0.0000000000000E+00
(PID.TID 0000.0001) %MON g__dynstat_g_wvel_min        =   0.0000000000000E+00
(PID.TID 0000.0001) %MON g__dynstat_g_wvel_mean       =   0.0000000000000E+00
(PID.TID 0000.0001) %MON g__dynstat_g_wvel_sd         =   0.0000000000000E+00
(PID.TID 0000.0001) %MON g__dynstat_g_wvel_del2       =   0.0000000000000E+00
(PID.TID 0000.0001) %MON g__dynstat_g_theta_max       =   0.0000000000000E+00
(PID.TID 0000.0001) %MON g__dynstat_g_theta_min       =   0.0000000000000E+00
(PID.TID 0000.0001) %MON g__dynstat_g_theta_mean      =   0.0000000000000E+00
(PID.TID 0000.0001) %MON g__dynstat_g_theta_sd        =   0.0000000000000E+00
(PID.TID 0000.0001) %MON g__dynstat_g_theta_del2      =   0.0000000000000E+00
(PID.TID 0000.0001) %MON g__dynstat_g_salt_max        =   0.0000000000000E+00
(PID.TID 0000.0001) %MON g__dynstat_g_salt_min        =   0.0000000000000E+00
(PID.TID 0000.0001) %MON g__dynstat_g_salt_mean       =   0.0000000000000E+00
(PID.TID 0000.0001) %MON g__dynstat_g_salt_sd         =   0.0000000000000E+00
(PID.TID 0000.0001) %MON g__dynstat_g_salt_del2       =   0.0000000000000E+00
(PID.TID 0000.0001) %MON g__dynstat_g_sst_max         =   0.0000000000000E+00
(PID.TID 0000.0001) %MON g__dynstat_g_sst_min         =   0.0000000000000E+00
(PID.TID 0000.0001) %MON g__dynstat_g_sst_mean        =   0.0000000000000E+00
(PID.TID 0000.0001) %MON g__dynstat_g_sst_sd          =   0.0000000000000E+00
(PID.TID 0000.0001) %MON g__dynstat_g_sst_del2        =   0.0000000000000E+00
(PID.TID 0000.0001) %MON g__dynstat_g_sss_max         =   0.0000000000000E+00
(PID.TID 0000.0001) %MON g__dynstat_g_sss_min         =   0.0000000000000E+00
(PID.TID 0000.0001) %MON g__dynstat_g_sss_mean        =   0.0000000000000E+00
(PID.TID 0000.0001) %MON g__dynstat_g_sss_sd          =   0.0000000000000E+00
(PID.TID 0000.0001) %MON g__dynstat_g_sss_del2        =   0.0000000000000E+00
(PID.TID 0000.0001) %MON g__extforcing_g_qnet_max     =   0.0000000000000E+00
(PID.TID 0000.0001) %MON g__extforcing_g_qnet_min     =   0.0000000000000E+00
(PID.TID 0000.0001) %MON g__extforcing_g_qnet_mean    =   0.0000000000000E+00
(PID.TID 0000.0001) %MON g__extforcing_g_qnet_sd      =   0.0000000000000E+00
(PID.TID 0000.0001) %MON g__extforcing_g_qnet_del2    =   0.0000000000000E+00
(PID.TID 0000.0001) %MON g__extforcing_g_empmr_max    =   0.0000000000000E+00
(PID.TID 0000.0001) %MON g__extforcing_g_empmr_min    =   0.0000000000000E+00
(PID.TID 0000.0001) %MON g__extforcing_g_empmr_mean   =   0.0000000000000E+00
(PID.TID 0000.0001) %MON g__extforcing_g_empmr_sd     =   0.0000000000000E+00
(PID.TID 0000.0001) %MON g__extforcing_g_empmr_del2   =   0.0000000000000E+00
(PID.TID 0000.0001) %MON g__extforcing_g_fu_max       =   0.0000000000000E+00
(PID.TID 0000.0001) %MON g__extforcing_g_fu_min       =   0.0000000000000E+00
(PID.TID 0000.0001) %MON g__extforcing_g_fu_mean      =   0.0000000000000E+00
(PID.TID 0000.0001) %MON g__extforcing_g_fu_sd        =   0.0000000000000E+00
(PID.TID 0000.0001) %MON g__extforcing_g_fu_del2      =   0.0000000000000E+00
(PID.TID 0000.0001) %MON g__extforcing_g_fv_max       =   0.0000000000000E+00
(PID.TID 0000.0001) %MON g__extforcing_g_fv_min       =   0.0000000000000E+00
(PID.TID 0000.0001) %MON g__extforcing_g_fv_mean      =   0.0000000000000E+00
(PID.TID 0000.0001) %MON g__extforcing_g_fv_sd        =   0.0000000000000E+00
(PID.TID 0000.0001) %MON g__extforcing_g_fv_del2      =   0.0000000000000E+00
(PID.TID 0000.0001) %MON g__g_vcfl_g_uvel_max         =   0.0000000000000E+00
(PID.TID 0000.0001) %MON g__g_vcfl_g_vvel_max         =   0.0000000000000E+00
(PID.TID 0000.0001) %MON g__g_vcfl_g_wvel_max         =   0.0000000000000E+00
(PID.TID 0000.0001) %MON g__g_vcfl_g_W_hf_max         =   0.0000000000000E+00
(PID.TID 0000.0001) // =======================================================
(PID.TID 0000.0001) // End MONITOR dynamic field statistics
(PID.TID 0000.0001) // =======================================================
 cg2d: Sum(rhs),rhsMax =   0.00000000000000E+00  0.00000000000000E+00
 cg2d: Sum(rhs),rhsMax =   4.38633504518116E-14  7.26221759046284E+00
(PID.TID 0000.0001) // =======================================================
(PID.TID 0000.0001) // Begin MONITOR dynamic field statistics
(PID.TID 0000.0001) // =======================================================
(PID.TID 0000.0001) %MON g__time_tsnumber             =                     7
(PID.TID 0000.0001) %MON g__time_secondsf             =   3.0240000000000E+05
(PID.TID 0000.0001) %MON g__dynstat_g_eta_max         =   0.0000000000000E+00
(PID.TID 0000.0001) %MON g__dynstat_g_eta_min         =   0.0000000000000E+00
(PID.TID 0000.0001) %MON g__dynstat_g_eta_mean        =   0.0000000000000E+00
(PID.TID 0000.0001) %MON g__dynstat_g_eta_sd          =   0.0000000000000E+00
(PID.TID 0000.0001) %MON g__dynstat_g_eta_del2        =   0.0000000000000E+00
(PID.TID 0000.0001) %MON g__dynstat_g_uvel_max        =   0.0000000000000E+00
(PID.TID 0000.0001) %MON g__dynstat_g_uvel_min        =   0.0000000000000E+00
(PID.TID 0000.0001) %MON g__dynstat_g_uvel_mean       =   0.0000000000000E+00
(PID.TID 0000.0001) %MON g__dynstat_g_uvel_sd         =   0.0000000000000E+00
(PID.TID 0000.0001) %MON g__dynstat_g_uvel_del2       =   0.0000000000000E+00
(PID.TID 0000.0001) %MON g__dynstat_g_vvel_max        =   0.0000000000000E+00
(PID.TID 0000.0001) %MON g__dynstat_g_vvel_min        =   0.0000000000000E+00
(PID.TID 0000.0001) %MON g__dynstat_g_vvel_mean       =   0.0000000000000E+00
(PID.TID 0000.0001) %MON g__dynstat_g_vvel_sd         =   0.0000000000000E+00
(PID.TID 0000.0001) %MON g__dynstat_g_vvel_del2       =   0.0000000000000E+00
(PID.TID 0000.0001) %MON g__dynstat_g_wvel_max        =   0.0000000000000E+00
(PID.TID 0000.0001) %MON g__dynstat_g_wvel_min        =   0.0000000000000E+00
(PID.TID 0000.0001) %MON g__dynstat_g_wvel_mean       =   0.0000000000000E+00
(PID.TID 0000.0001) %MON g__dynstat_g_wvel_sd         =   0.0000000000000E+00
(PID.TID 0000.0001) %MON g__dynstat_g_wvel_del2       =   0.0000000000000E+00
(PID.TID 0000.0001) %MON g__dynstat_g_theta_max       =   0.0000000000000E+00
(PID.TID 0000.0001) %MON g__dynstat_g_theta_min       =   0.0000000000000E+00
(PID.TID 0000.0001) %MON g__dynstat_g_theta_mean      =   0.0000000000000E+00
(PID.TID 0000.0001) %MON g__dynstat_g_theta_sd        =   0.0000000000000E+00
(PID.TID 0000.0001) %MON g__dynstat_g_theta_del2      =   0.0000000000000E+00
(PID.TID 0000.0001) %MON g__dynstat_g_salt_max        =   0.0000000000000E+00
(PID.TID 0000.0001) %MON g__dynstat_g_salt_min        =   0.0000000000000E+00
(PID.TID 0000.0001) %MON g__dynstat_g_salt_mean       =   0.0000000000000E+00
(PID.TID 0000.0001) %MON g__dynstat_g_salt_sd         =   0.0000000000000E+00
(PID.TID 0000.0001) %MON g__dynstat_g_salt_del2       =   0.0000000000000E+00
(PID.TID 0000.0001) %MON g__dynstat_g_sst_max         =   0.0000000000000E+00
(PID.TID 0000.0001) %MON g__dynstat_g_sst_min         =   0.0000000000000E+00
(PID.TID 0000.0001) %MON g__dynstat_g_sst_mean        =   0.0000000000000E+00
(PID.TID 0000.0001) %MON g__dynstat_g_sst_sd          =   0.0000000000000E+00
(PID.TID 0000.0001) %MON g__dynstat_g_sst_del2        =   0.0000000000000E+00
(PID.TID 0000.0001) %MON g__dynstat_g_sss_max         =   0.0000000000000E+00
(PID.TID 0000.0001) %MON g__dynstat_g_sss_min         =   0.0000000000000E+00
(PID.TID 0000.0001) %MON g__dynstat_g_sss_mean        =   0.0000000000000E+00
(PID.TID 0000.0001) %MON g__dynstat_g_sss_sd          =   0.0000000000000E+00
(PID.TID 0000.0001) %MON g__dynstat_g_sss_del2        =   0.0000000000000E+00
(PID.TID 0000.0001) %MON g__extforcing_g_qnet_max     =   0.0000000000000E+00
(PID.TID 0000.0001) %MON g__extforcing_g_qnet_min     =   0.0000000000000E+00
(PID.TID 0000.0001) %MON g__extforcing_g_qnet_mean    =   0.0000000000000E+00
(PID.TID 0000.0001) %MON g__extforcing_g_qnet_sd      =   0.0000000000000E+00
(PID.TID 0000.0001) %MON g__extforcing_g_qnet_del2    =   0.0000000000000E+00
(PID.TID 0000.0001) %MON g__extforcing_g_empmr_max    =   0.0000000000000E+00
(PID.TID 0000.0001) %MON g__extforcing_g_empmr_min    =   0.0000000000000E+00
(PID.TID 0000.0001) %MON g__extforcing_g_empmr_mean   =   0.0000000000000E+00
(PID.TID 0000.0001) %MON g__extforcing_g_empmr_sd     =   0.0000000000000E+00
(PID.TID 0000.0001) %MON g__extforcing_g_empmr_del2   =   0.0000000000000E+00
(PID.TID 0000.0001) %MON g__extforcing_g_fu_max       =   0.0000000000000E+00
(PID.TID 0000.0001) %MON g__extforcing_g_fu_min       =   0.0000000000000E+00
(PID.TID 0000.0001) %MON g__extforcing_g_fu_mean      =   0.0000000000000E+00
(PID.TID 0000.0001) %MON g__extforcing_g_fu_sd        =   0.0000000000000E+00
(PID.TID 0000.0001) %MON g__extforcing_g_fu_del2      =   0.0000000000000E+00
(PID.TID 0000.0001) %MON g__extforcing_g_fv_max       =   0.0000000000000E+00
(PID.TID 0000.0001) %MON g__extforcing_g_fv_min       =   0.0000000000000E+00
(PID.TID 0000.0001) %MON g__extforcing_g_fv_mean      =   0.0000000000000E+00
(PID.TID 0000.0001) %MON g__extforcing_g_fv_sd        =   0.0000000000000E+00
(PID.TID 0000.0001) %MON g__extforcing_g_fv_del2      =   0.0000000000000E+00
(PID.TID 0000.0001) %MON g__g_vcfl_g_uvel_max         =   0.0000000000000E+00
(PID.TID 0000.0001) %MON g__g_vcfl_g_vvel_max         =   0.0000000000000E+00
(PID.TID 0000.0001) %MON g__g_vcfl_g_wvel_max         =   0.0000000000000E+00
(PID.TID 0000.0001) %MON g__g_vcfl_g_W_hf_max         =   0.0000000000000E+00
(PID.TID 0000.0001) // =======================================================
(PID.TID 0000.0001) // End MONITOR dynamic field statistics
(PID.TID 0000.0001) // =======================================================
 cg2d: Sum(rhs),rhsMax =   0.00000000000000E+00  0.00000000000000E+00
 cg2d: Sum(rhs),rhsMax =  -1.71390516796183E-13  7.87499194900245E+00
(PID.TID 0000.0001) // =======================================================
(PID.TID 0000.0001) // Begin MONITOR dynamic field statistics
(PID.TID 0000.0001) // =======================================================
(PID.TID 0000.0001) %MON g__time_tsnumber             =                     8
(PID.TID 0000.0001) %MON g__time_secondsf             =   3.4560000000000E+05
(PID.TID 0000.0001) %MON g__dynstat_g_eta_max         =   0.0000000000000E+00
(PID.TID 0000.0001) %MON g__dynstat_g_eta_min         =   0.0000000000000E+00
(PID.TID 0000.0001) %MON g__dynstat_g_eta_mean        =   0.0000000000000E+00
(PID.TID 0000.0001) %MON g__dynstat_g_eta_sd          =   0.0000000000000E+00
(PID.TID 0000.0001) %MON g__dynstat_g_eta_del2        =   0.0000000000000E+00
(PID.TID 0000.0001) %MON g__dynstat_g_uvel_max        =   0.0000000000000E+00
(PID.TID 0000.0001) %MON g__dynstat_g_uvel_min        =   0.0000000000000E+00
(PID.TID 0000.0001) %MON g__dynstat_g_uvel_mean       =   0.0000000000000E+00
(PID.TID 0000.0001) %MON g__dynstat_g_uvel_sd         =   0.0000000000000E+00
(PID.TID 0000.0001) %MON g__dynstat_g_uvel_del2       =   0.0000000000000E+00
(PID.TID 0000.0001) %MON g__dynstat_g_vvel_max        =   0.0000000000000E+00
(PID.TID 0000.0001) %MON g__dynstat_g_vvel_min        =   0.0000000000000E+00
(PID.TID 0000.0001) %MON g__dynstat_g_vvel_mean       =   0.0000000000000E+00
(PID.TID 0000.0001) %MON g__dynstat_g_vvel_sd         =   0.0000000000000E+00
(PID.TID 0000.0001) %MON g__dynstat_g_vvel_del2       =   0.0000000000000E+00
(PID.TID 0000.0001) %MON g__dynstat_g_wvel_max        =   0.0000000000000E+00
(PID.TID 0000.0001) %MON g__dynstat_g_wvel_min        =   0.0000000000000E+00
(PID.TID 0000.0001) %MON g__dynstat_g_wvel_mean       =   0.0000000000000E+00
(PID.TID 0000.0001) %MON g__dynstat_g_wvel_sd         =   0.0000000000000E+00
(PID.TID 0000.0001) %MON g__dynstat_g_wvel_del2       =   0.0000000000000E+00
(PID.TID 0000.0001) %MON g__dynstat_g_theta_max       =   0.0000000000000E+00
(PID.TID 0000.0001) %MON g__dynstat_g_theta_min       =   0.0000000000000E+00
(PID.TID 0000.0001) %MON g__dynstat_g_theta_mean      =   0.0000000000000E+00
(PID.TID 0000.0001) %MON g__dynstat_g_theta_sd        =   0.0000000000000E+00
(PID.TID 0000.0001) %MON g__dynstat_g_theta_del2      =   0.0000000000000E+00
(PID.TID 0000.0001) %MON g__dynstat_g_salt_max        =   0.0000000000000E+00
(PID.TID 0000.0001) %MON g__dynstat_g_salt_min        =   0.0000000000000E+00
(PID.TID 0000.0001) %MON g__dynstat_g_salt_mean       =   0.0000000000000E+00
(PID.TID 0000.0001) %MON g__dynstat_g_salt_sd         =   0.0000000000000E+00
(PID.TID 0000.0001) %MON g__dynstat_g_salt_del2       =   0.0000000000000E+00
(PID.TID 0000.0001) %MON g__dynstat_g_sst_max         =   0.0000000000000E+00
(PID.TID 0000.0001) %MON g__dynstat_g_sst_min         =   0.0000000000000E+00
(PID.TID 0000.0001) %MON g__dynstat_g_sst_mean        =   0.0000000000000E+00
(PID.TID 0000.0001) %MON g__dynstat_g_sst_sd          =   0.0000000000000E+00
(PID.TID 0000.0001) %MON g__dynstat_g_sst_del2        =   0.0000000000000E+00
(PID.TID 0000.0001) %MON g__dynstat_g_sss_max         =   0.0000000000000E+00
(PID.TID 0000.0001) %MON g__dynstat_g_sss_min         =   0.0000000000000E+00
(PID.TID 0000.0001) %MON g__dynstat_g_sss_mean        =   0.0000000000000E+00
(PID.TID 0000.0001) %MON g__dynstat_g_sss_sd          =   0.0000000000000E+00
(PID.TID 0000.0001) %MON g__dynstat_g_sss_del2        =   0.0000000000000E+00
(PID.TID 0000.0001) %MON g__extforcing_g_qnet_max     =   0.0000000000000E+00
(PID.TID 0000.0001) %MON g__extforcing_g_qnet_min     =   0.0000000000000E+00
(PID.TID 0000.0001) %MON g__extforcing_g_qnet_mean    =   0.0000000000000E+00
(PID.TID 0000.0001) %MON g__extforcing_g_qnet_sd      =   0.0000000000000E+00
(PID.TID 0000.0001) %MON g__extforcing_g_qnet_del2    =   0.0000000000000E+00
(PID.TID 0000.0001) %MON g__extforcing_g_empmr_max    =   0.0000000000000E+00
(PID.TID 0000.0001) %MON g__extforcing_g_empmr_min    =   0.0000000000000E+00
(PID.TID 0000.0001) %MON g__extforcing_g_empmr_mean   =   0.0000000000000E+00
(PID.TID 0000.0001) %MON g__extforcing_g_empmr_sd     =   0.0000000000000E+00
(PID.TID 0000.0001) %MON g__extforcing_g_empmr_del2   =   0.0000000000000E+00
(PID.TID 0000.0001) %MON g__extforcing_g_fu_max       =   0.0000000000000E+00
(PID.TID 0000.0001) %MON g__extforcing_g_fu_min       =   0.0000000000000E+00
(PID.TID 0000.0001) %MON g__extforcing_g_fu_mean      =   0.0000000000000E+00
(PID.TID 0000.0001) %MON g__extforcing_g_fu_sd        =   0.0000000000000E+00
(PID.TID 0000.0001) %MON g__extforcing_g_fu_del2      =   0.0000000000000E+00
(PID.TID 0000.0001) %MON g__extforcing_g_fv_max       =   0.0000000000000E+00
(PID.TID 0000.0001) %MON g__extforcing_g_fv_min       =   0.0000000000000E+00
(PID.TID 0000.0001) %MON g__extforcing_g_fv_mean      =   0.0000000000000E+00
(PID.TID 0000.0001) %MON g__extforcing_g_fv_sd        =   0.0000000000000E+00
(PID.TID 0000.0001) %MON g__extforcing_g_fv_del2      =   0.0000000000000E+00
(PID.TID 0000.0001) %MON g__g_vcfl_g_uvel_max         =   0.0000000000000E+00
(PID.TID 0000.0001) %MON g__g_vcfl_g_vvel_max         =   0.0000000000000E+00
(PID.TID 0000.0001) %MON g__g_vcfl_g_wvel_max         =   0.0000000000000E+00
(PID.TID 0000.0001) %MON g__g_vcfl_g_W_hf_max         =   0.0000000000000E+00
(PID.TID 0000.0001) // =======================================================
(PID.TID 0000.0001) // End MONITOR dynamic field statistics
(PID.TID 0000.0001) // =======================================================
 cg2d: Sum(rhs),rhsMax =   0.00000000000000E+00  0.00000000000000E+00
 cg2d: Sum(rhs),rhsMax =  -5.51802527282153E-14  8.21213972807561E+00
(PID.TID 0000.0001) // =======================================================
(PID.TID 0000.0001) // Begin MONITOR dynamic field statistics
(PID.TID 0000.0001) // =======================================================
(PID.TID 0000.0001) %MON g__time_tsnumber             =                     9
(PID.TID 0000.0001) %MON g__time_secondsf             =   3.8880000000000E+05
(PID.TID 0000.0001) %MON g__dynstat_g_eta_max         =   0.0000000000000E+00
(PID.TID 0000.0001) %MON g__dynstat_g_eta_min         =   0.0000000000000E+00
(PID.TID 0000.0001) %MON g__dynstat_g_eta_mean        =   0.0000000000000E+00
(PID.TID 0000.0001) %MON g__dynstat_g_eta_sd          =   0.0000000000000E+00
(PID.TID 0000.0001) %MON g__dynstat_g_eta_del2        =   0.0000000000000E+00
(PID.TID 0000.0001) %MON g__dynstat_g_uvel_max        =   0.0000000000000E+00
(PID.TID 0000.0001) %MON g__dynstat_g_uvel_min        =   0.0000000000000E+00
(PID.TID 0000.0001) %MON g__dynstat_g_uvel_mean       =   0.0000000000000E+00
(PID.TID 0000.0001) %MON g__dynstat_g_uvel_sd         =   0.0000000000000E+00
(PID.TID 0000.0001) %MON g__dynstat_g_uvel_del2       =   0.0000000000000E+00
(PID.TID 0000.0001) %MON g__dynstat_g_vvel_max        =   0.0000000000000E+00
(PID.TID 0000.0001) %MON g__dynstat_g_vvel_min        =   0.0000000000000E+00
(PID.TID 0000.0001) %MON g__dynstat_g_vvel_mean       =   0.0000000000000E+00
(PID.TID 0000.0001) %MON g__dynstat_g_vvel_sd         =   0.0000000000000E+00
(PID.TID 0000.0001) %MON g__dynstat_g_vvel_del2       =   0.0000000000000E+00
(PID.TID 0000.0001) %MON g__dynstat_g_wvel_max        =   0.0000000000000E+00
(PID.TID 0000.0001) %MON g__dynstat_g_wvel_min        =   0.0000000000000E+00
(PID.TID 0000.0001) %MON g__dynstat_g_wvel_mean       =   0.0000000000000E+00
(PID.TID 0000.0001) %MON g__dynstat_g_wvel_sd         =   0.0000000000000E+00
(PID.TID 0000.0001) %MON g__dynstat_g_wvel_del2       =   0.0000000000000E+00
(PID.TID 0000.0001) %MON g__dynstat_g_theta_max       =   0.0000000000000E+00
(PID.TID 0000.0001) %MON g__dynstat_g_theta_min       =   0.0000000000000E+00
(PID.TID 0000.0001) %MON g__dynstat_g_theta_mean      =   0.0000000000000E+00
(PID.TID 0000.0001) %MON g__dynstat_g_theta_sd        =   0.0000000000000E+00
(PID.TID 0000.0001) %MON g__dynstat_g_theta_del2      =   0.0000000000000E+00
(PID.TID 0000.0001) %MON g__dynstat_g_salt_max        =   0.0000000000000E+00
(PID.TID 0000.0001) %MON g__dynstat_g_salt_min        =   0.0000000000000E+00
(PID.TID 0000.0001) %MON g__dynstat_g_salt_mean       =   0.0000000000000E+00
(PID.TID 0000.0001) %MON g__dynstat_g_salt_sd         =   0.0000000000000E+00
(PID.TID 0000.0001) %MON g__dynstat_g_salt_del2       =   0.0000000000000E+00
(PID.TID 0000.0001) %MON g__dynstat_g_sst_max         =   0.0000000000000E+00
(PID.TID 0000.0001) %MON g__dynstat_g_sst_min         =   0.0000000000000E+00
(PID.TID 0000.0001) %MON g__dynstat_g_sst_mean        =   0.0000000000000E+00
(PID.TID 0000.0001) %MON g__dynstat_g_sst_sd          =   0.0000000000000E+00
(PID.TID 0000.0001) %MON g__dynstat_g_sst_del2        =   0.0000000000000E+00
(PID.TID 0000.0001) %MON g__dynstat_g_sss_max         =   0.0000000000000E+00
(PID.TID 0000.0001) %MON g__dynstat_g_sss_min         =   0.0000000000000E+00
(PID.TID 0000.0001) %MON g__dynstat_g_sss_mean        =   0.0000000000000E+00
(PID.TID 0000.0001) %MON g__dynstat_g_sss_sd          =   0.0000000000000E+00
(PID.TID 0000.0001) %MON g__dynstat_g_sss_del2        =   0.0000000000000E+00
(PID.TID 0000.0001) %MON g__extforcing_g_qnet_max     =   0.0000000000000E+00
(PID.TID 0000.0001) %MON g__extforcing_g_qnet_min     =   0.0000000000000E+00
(PID.TID 0000.0001) %MON g__extforcing_g_qnet_mean    =   0.0000000000000E+00
(PID.TID 0000.0001) %MON g__extforcing_g_qnet_sd      =   0.0000000000000E+00
(PID.TID 0000.0001) %MON g__extforcing_g_qnet_del2    =   0.0000000000000E+00
(PID.TID 0000.0001) %MON g__extforcing_g_empmr_max    =   0.0000000000000E+00
(PID.TID 0000.0001) %MON g__extforcing_g_empmr_min    =   0.0000000000000E+00
(PID.TID 0000.0001) %MON g__extforcing_g_empmr_mean   =   0.0000000000000E+00
(PID.TID 0000.0001) %MON g__extforcing_g_empmr_sd     =   0.0000000000000E+00
(PID.TID 0000.0001) %MON g__extforcing_g_empmr_del2   =   0.0000000000000E+00
(PID.TID 0000.0001) %MON g__extforcing_g_fu_max       =   0.0000000000000E+00
(PID.TID 0000.0001) %MON g__extforcing_g_fu_min       =   0.0000000000000E+00
(PID.TID 0000.0001) %MON g__extforcing_g_fu_mean      =   0.0000000000000E+00
(PID.TID 0000.0001) %MON g__extforcing_g_fu_sd        =   0.0000000000000E+00
(PID.TID 0000.0001) %MON g__extforcing_g_fu_del2      =   0.0000000000000E+00
(PID.TID 0000.0001) %MON g__extforcing_g_fv_max       =   0.0000000000000E+00
(PID.TID 0000.0001) %MON g__extforcing_g_fv_min       =   0.0000000000000E+00
(PID.TID 0000.0001) %MON g__extforcing_g_fv_mean      =   0.0000000000000E+00
(PID.TID 0000.0001) %MON g__extforcing_g_fv_sd        =   0.0000000000000E+00
(PID.TID 0000.0001) %MON g__extforcing_g_fv_del2      =   0.0000000000000E+00
(PID.TID 0000.0001) %MON g__g_vcfl_g_uvel_max         =   0.0000000000000E+00
(PID.TID 0000.0001) %MON g__g_vcfl_g_vvel_max         =   0.0000000000000E+00
(PID.TID 0000.0001) %MON g__g_vcfl_g_wvel_max         =   0.0000000000000E+00
(PID.TID 0000.0001) %MON g__g_vcfl_g_W_hf_max         =   0.0000000000000E+00
(PID.TID 0000.0001) // =======================================================
(PID.TID 0000.0001) // End MONITOR dynamic field statistics
(PID.TID 0000.0001) // =======================================================
 cg2d: Sum(rhs),rhsMax =   0.00000000000000E+00  0.00000000000000E+00
 cg2d: Sum(rhs),rhsMax =  -3.50788842418126E-13  8.31512136376633E+00
(PID.TID 0000.0001) // =======================================================
(PID.TID 0000.0001) // Begin MONITOR dynamic field statistics
(PID.TID 0000.0001) // =======================================================
(PID.TID 0000.0001) %MON g__time_tsnumber             =                    10
(PID.TID 0000.0001) %MON g__time_secondsf             =   4.3200000000000E+05
(PID.TID 0000.0001) %MON g__dynstat_g_eta_max         =   0.0000000000000E+00
(PID.TID 0000.0001) %MON g__dynstat_g_eta_min         =   0.0000000000000E+00
(PID.TID 0000.0001) %MON g__dynstat_g_eta_mean        =   0.0000000000000E+00
(PID.TID 0000.0001) %MON g__dynstat_g_eta_sd          =   0.0000000000000E+00
(PID.TID 0000.0001) %MON g__dynstat_g_eta_del2        =   0.0000000000000E+00
(PID.TID 0000.0001) %MON g__dynstat_g_uvel_max        =   0.0000000000000E+00
(PID.TID 0000.0001) %MON g__dynstat_g_uvel_min        =   0.0000000000000E+00
(PID.TID 0000.0001) %MON g__dynstat_g_uvel_mean       =   0.0000000000000E+00
(PID.TID 0000.0001) %MON g__dynstat_g_uvel_sd         =   0.0000000000000E+00
(PID.TID 0000.0001) %MON g__dynstat_g_uvel_del2       =   0.0000000000000E+00
(PID.TID 0000.0001) %MON g__dynstat_g_vvel_max        =   0.0000000000000E+00
(PID.TID 0000.0001) %MON g__dynstat_g_vvel_min        =   0.0000000000000E+00
(PID.TID 0000.0001) %MON g__dynstat_g_vvel_mean       =   0.0000000000000E+00
(PID.TID 0000.0001) %MON g__dynstat_g_vvel_sd         =   0.0000000000000E+00
(PID.TID 0000.0001) %MON g__dynstat_g_vvel_del2       =   0.0000000000000E+00
(PID.TID 0000.0001) %MON g__dynstat_g_wvel_max        =   0.0000000000000E+00
(PID.TID 0000.0001) %MON g__dynstat_g_wvel_min        =   0.0000000000000E+00
(PID.TID 0000.0001) %MON g__dynstat_g_wvel_mean       =   0.0000000000000E+00
(PID.TID 0000.0001) %MON g__dynstat_g_wvel_sd         =   0.0000000000000E+00
(PID.TID 0000.0001) %MON g__dynstat_g_wvel_del2       =   0.0000000000000E+00
(PID.TID 0000.0001) %MON g__dynstat_g_theta_max       =   0.0000000000000E+00
(PID.TID 0000.0001) %MON g__dynstat_g_theta_min       =   0.0000000000000E+00
(PID.TID 0000.0001) %MON g__dynstat_g_theta_mean      =   0.0000000000000E+00
(PID.TID 0000.0001) %MON g__dynstat_g_theta_sd        =   0.0000000000000E+00
(PID.TID 0000.0001) %MON g__dynstat_g_theta_del2      =   0.0000000000000E+00
(PID.TID 0000.0001) %MON g__dynstat_g_salt_max        =   0.0000000000000E+00
(PID.TID 0000.0001) %MON g__dynstat_g_salt_min        =   0.0000000000000E+00
(PID.TID 0000.0001) %MON g__dynstat_g_salt_mean       =   0.0000000000000E+00
(PID.TID 0000.0001) %MON g__dynstat_g_salt_sd         =   0.0000000000000E+00
(PID.TID 0000.0001) %MON g__dynstat_g_salt_del2       =   0.0000000000000E+00
(PID.TID 0000.0001) %MON g__dynstat_g_sst_max         =   0.0000000000000E+00
(PID.TID 0000.0001) %MON g__dynstat_g_sst_min         =   0.0000000000000E+00
(PID.TID 0000.0001) %MON g__dynstat_g_sst_mean        =   0.0000000000000E+00
(PID.TID 0000.0001) %MON g__dynstat_g_sst_sd          =   0.0000000000000E+00
(PID.TID 0000.0001) %MON g__dynstat_g_sst_del2        =   0.0000000000000E+00
(PID.TID 0000.0001) %MON g__dynstat_g_sss_max         =   0.0000000000000E+00
(PID.TID 0000.0001) %MON g__dynstat_g_sss_min         =   0.0000000000000E+00
(PID.TID 0000.0001) %MON g__dynstat_g_sss_mean        =   0.0000000000000E+00
(PID.TID 0000.0001) %MON g__dynstat_g_sss_sd          =   0.0000000000000E+00
(PID.TID 0000.0001) %MON g__dynstat_g_sss_del2        =   0.0000000000000E+00
(PID.TID 0000.0001) %MON g__extforcing_g_qnet_max     =   0.0000000000000E+00
(PID.TID 0000.0001) %MON g__extforcing_g_qnet_min     =   0.0000000000000E+00
(PID.TID 0000.0001) %MON g__extforcing_g_qnet_mean    =   0.0000000000000E+00
(PID.TID 0000.0001) %MON g__extforcing_g_qnet_sd      =   0.0000000000000E+00
(PID.TID 0000.0001) %MON g__extforcing_g_qnet_del2    =   0.0000000000000E+00
(PID.TID 0000.0001) %MON g__extforcing_g_empmr_max    =   0.0000000000000E+00
(PID.TID 0000.0001) %MON g__extforcing_g_empmr_min    =   0.0000000000000E+00
(PID.TID 0000.0001) %MON g__extforcing_g_empmr_mean   =   0.0000000000000E+00
(PID.TID 0000.0001) %MON g__extforcing_g_empmr_sd     =   0.0000000000000E+00
(PID.TID 0000.0001) %MON g__extforcing_g_empmr_del2   =   0.0000000000000E+00
(PID.TID 0000.0001) %MON g__extforcing_g_fu_max       =   0.0000000000000E+00
(PID.TID 0000.0001) %MON g__extforcing_g_fu_min       =   0.0000000000000E+00
(PID.TID 0000.0001) %MON g__extforcing_g_fu_mean      =   0.0000000000000E+00
(PID.TID 0000.0001) %MON g__extforcing_g_fu_sd        =   0.0000000000000E+00
(PID.TID 0000.0001) %MON g__extforcing_g_fu_del2      =   0.0000000000000E+00
(PID.TID 0000.0001) %MON g__extforcing_g_fv_max       =   0.0000000000000E+00
(PID.TID 0000.0001) %MON g__extforcing_g_fv_min       =   0.0000000000000E+00
(PID.TID 0000.0001) %MON g__extforcing_g_fv_mean      =   0.0000000000000E+00
(PID.TID 0000.0001) %MON g__extforcing_g_fv_sd        =   0.0000000000000E+00
(PID.TID 0000.0001) %MON g__extforcing_g_fv_del2      =   0.0000000000000E+00
(PID.TID 0000.0001) %MON g__g_vcfl_g_uvel_max         =   0.0000000000000E+00
(PID.TID 0000.0001) %MON g__g_vcfl_g_vvel_max         =   0.0000000000000E+00
(PID.TID 0000.0001) %MON g__g_vcfl_g_wvel_max         =   0.0000000000000E+00
(PID.TID 0000.0001) %MON g__g_vcfl_g_W_hf_max         =   0.0000000000000E+00
(PID.TID 0000.0001) // =======================================================
(PID.TID 0000.0001) // End MONITOR dynamic field statistics
(PID.TID 0000.0001) // =======================================================
 myIter=  10
(PID.TID 0000.0001) // Model state written, timestep        10
(PID.TID 0000.0001) 
 cg2d: Sum(rhs),rhsMax =   0.00000000000000E+00  0.00000000000000E+00
 cg2d: Sum(rhs),rhsMax =  -4.96371173330790E-13  8.25257067290290E+00
(PID.TID 0000.0001) // =======================================================
(PID.TID 0000.0001) // Begin MONITOR dynamic field statistics
(PID.TID 0000.0001) // =======================================================
(PID.TID 0000.0001) %MON g__time_tsnumber             =                    11
(PID.TID 0000.0001) %MON g__time_secondsf             =   4.7520000000000E+05
(PID.TID 0000.0001) %MON g__dynstat_g_eta_max         =   0.0000000000000E+00
(PID.TID 0000.0001) %MON g__dynstat_g_eta_min         =   0.0000000000000E+00
(PID.TID 0000.0001) %MON g__dynstat_g_eta_mean        =   0.0000000000000E+00
(PID.TID 0000.0001) %MON g__dynstat_g_eta_sd          =   0.0000000000000E+00
(PID.TID 0000.0001) %MON g__dynstat_g_eta_del2        =   0.0000000000000E+00
(PID.TID 0000.0001) %MON g__dynstat_g_uvel_max        =   0.0000000000000E+00
(PID.TID 0000.0001) %MON g__dynstat_g_uvel_min        =   0.0000000000000E+00
(PID.TID 0000.0001) %MON g__dynstat_g_uvel_mean       =   0.0000000000000E+00
(PID.TID 0000.0001) %MON g__dynstat_g_uvel_sd         =   0.0000000000000E+00
(PID.TID 0000.0001) %MON g__dynstat_g_uvel_del2       =   0.0000000000000E+00
(PID.TID 0000.0001) %MON g__dynstat_g_vvel_max        =   0.0000000000000E+00
(PID.TID 0000.0001) %MON g__dynstat_g_vvel_min        =   0.0000000000000E+00
(PID.TID 0000.0001) %MON g__dynstat_g_vvel_mean       =   0.0000000000000E+00
(PID.TID 0000.0001) %MON g__dynstat_g_vvel_sd         =   0.0000000000000E+00
(PID.TID 0000.0001) %MON g__dynstat_g_vvel_del2       =   0.0000000000000E+00
(PID.TID 0000.0001) %MON g__dynstat_g_wvel_max        =   0.0000000000000E+00
(PID.TID 0000.0001) %MON g__dynstat_g_wvel_min        =   0.0000000000000E+00
(PID.TID 0000.0001) %MON g__dynstat_g_wvel_mean       =   0.0000000000000E+00
(PID.TID 0000.0001) %MON g__dynstat_g_wvel_sd         =   0.0000000000000E+00
(PID.TID 0000.0001) %MON g__dynstat_g_wvel_del2       =   0.0000000000000E+00
(PID.TID 0000.0001) %MON g__dynstat_g_theta_max       =   0.0000000000000E+00
(PID.TID 0000.0001) %MON g__dynstat_g_theta_min       =   0.0000000000000E+00
(PID.TID 0000.0001) %MON g__dynstat_g_theta_mean      =   0.0000000000000E+00
(PID.TID 0000.0001) %MON g__dynstat_g_theta_sd        =   0.0000000000000E+00
(PID.TID 0000.0001) %MON g__dynstat_g_theta_del2      =   0.0000000000000E+00
(PID.TID 0000.0001) %MON g__dynstat_g_salt_max        =   0.0000000000000E+00
(PID.TID 0000.0001) %MON g__dynstat_g_salt_min        =   0.0000000000000E+00
(PID.TID 0000.0001) %MON g__dynstat_g_salt_mean       =   0.0000000000000E+00
(PID.TID 0000.0001) %MON g__dynstat_g_salt_sd         =   0.0000000000000E+00
(PID.TID 0000.0001) %MON g__dynstat_g_salt_del2       =   0.0000000000000E+00
(PID.TID 0000.0001) %MON g__dynstat_g_sst_max         =   0.0000000000000E+00
(PID.TID 0000.0001) %MON g__dynstat_g_sst_min         =   0.0000000000000E+00
(PID.TID 0000.0001) %MON g__dynstat_g_sst_mean        =   0.0000000000000E+00
(PID.TID 0000.0001) %MON g__dynstat_g_sst_sd          =   0.0000000000000E+00
(PID.TID 0000.0001) %MON g__dynstat_g_sst_del2        =   0.0000000000000E+00
(PID.TID 0000.0001) %MON g__dynstat_g_sss_max         =   0.0000000000000E+00
(PID.TID 0000.0001) %MON g__dynstat_g_sss_min         =   0.0000000000000E+00
(PID.TID 0000.0001) %MON g__dynstat_g_sss_mean        =   0.0000000000000E+00
(PID.TID 0000.0001) %MON g__dynstat_g_sss_sd          =   0.0000000000000E+00
(PID.TID 0000.0001) %MON g__dynstat_g_sss_del2        =   0.0000000000000E+00
(PID.TID 0000.0001) %MON g__extforcing_g_qnet_max     =   0.0000000000000E+00
(PID.TID 0000.0001) %MON g__extforcing_g_qnet_min     =   0.0000000000000E+00
(PID.TID 0000.0001) %MON g__extforcing_g_qnet_mean    =   0.0000000000000E+00
(PID.TID 0000.0001) %MON g__extforcing_g_qnet_sd      =   0.0000000000000E+00
(PID.TID 0000.0001) %MON g__extforcing_g_qnet_del2    =   0.0000000000000E+00
(PID.TID 0000.0001) %MON g__extforcing_g_empmr_max    =   0.0000000000000E+00
(PID.TID 0000.0001) %MON g__extforcing_g_empmr_min    =   0.0000000000000E+00
(PID.TID 0000.0001) %MON g__extforcing_g_empmr_mean   =   0.0000000000000E+00
(PID.TID 0000.0001) %MON g__extforcing_g_empmr_sd     =   0.0000000000000E+00
(PID.TID 0000.0001) %MON g__extforcing_g_empmr_del2   =   0.0000000000000E+00
(PID.TID 0000.0001) %MON g__extforcing_g_fu_max       =   0.0000000000000E+00
(PID.TID 0000.0001) %MON g__extforcing_g_fu_min       =   0.0000000000000E+00
(PID.TID 0000.0001) %MON g__extforcing_g_fu_mean      =   0.0000000000000E+00
(PID.TID 0000.0001) %MON g__extforcing_g_fu_sd        =   0.0000000000000E+00
(PID.TID 0000.0001) %MON g__extforcing_g_fu_del2      =   0.0000000000000E+00
(PID.TID 0000.0001) %MON g__extforcing_g_fv_max       =   0.0000000000000E+00
(PID.TID 0000.0001) %MON g__extforcing_g_fv_min       =   0.0000000000000E+00
(PID.TID 0000.0001) %MON g__extforcing_g_fv_mean      =   0.0000000000000E+00
(PID.TID 0000.0001) %MON g__extforcing_g_fv_sd        =   0.0000000000000E+00
(PID.TID 0000.0001) %MON g__extforcing_g_fv_del2      =   0.0000000000000E+00
(PID.TID 0000.0001) %MON g__g_vcfl_g_uvel_max         =   0.0000000000000E+00
(PID.TID 0000.0001) %MON g__g_vcfl_g_vvel_max         =   0.0000000000000E+00
(PID.TID 0000.0001) %MON g__g_vcfl_g_wvel_max         =   0.0000000000000E+00
(PID.TID 0000.0001) %MON g__g_vcfl_g_W_hf_max         =   0.0000000000000E+00
(PID.TID 0000.0001) // =======================================================
(PID.TID 0000.0001) // End MONITOR dynamic field statistics
(PID.TID 0000.0001) // =======================================================
 cg2d: Sum(rhs),rhsMax =   0.00000000000000E+00  0.00000000000000E+00
 cg2d: Sum(rhs),rhsMax =  -5.23452808876002E-13  8.09293762885827E+00
(PID.TID 0000.0001) // =======================================================
(PID.TID 0000.0001) // Begin MONITOR dynamic field statistics
(PID.TID 0000.0001) // =======================================================
(PID.TID 0000.0001) %MON g__time_tsnumber             =                    12
(PID.TID 0000.0001) %MON g__time_secondsf             =   5.1840000000000E+05
(PID.TID 0000.0001) %MON g__dynstat_g_eta_max         =   0.0000000000000E+00
(PID.TID 0000.0001) %MON g__dynstat_g_eta_min         =   0.0000000000000E+00
(PID.TID 0000.0001) %MON g__dynstat_g_eta_mean        =   0.0000000000000E+00
(PID.TID 0000.0001) %MON g__dynstat_g_eta_sd          =   0.0000000000000E+00
(PID.TID 0000.0001) %MON g__dynstat_g_eta_del2        =   0.0000000000000E+00
(PID.TID 0000.0001) %MON g__dynstat_g_uvel_max        =   0.0000000000000E+00
(PID.TID 0000.0001) %MON g__dynstat_g_uvel_min        =   0.0000000000000E+00
(PID.TID 0000.0001) %MON g__dynstat_g_uvel_mean       =   0.0000000000000E+00
(PID.TID 0000.0001) %MON g__dynstat_g_uvel_sd         =   0.0000000000000E+00
(PID.TID 0000.0001) %MON g__dynstat_g_uvel_del2       =   0.0000000000000E+00
(PID.TID 0000.0001) %MON g__dynstat_g_vvel_max        =   0.0000000000000E+00
(PID.TID 0000.0001) %MON g__dynstat_g_vvel_min        =   0.0000000000000E+00
(PID.TID 0000.0001) %MON g__dynstat_g_vvel_mean       =   0.0000000000000E+00
(PID.TID 0000.0001) %MON g__dynstat_g_vvel_sd         =   0.0000000000000E+00
(PID.TID 0000.0001) %MON g__dynstat_g_vvel_del2       =   0.0000000000000E+00
(PID.TID 0000.0001) %MON g__dynstat_g_wvel_max        =   0.0000000000000E+00
(PID.TID 0000.0001) %MON g__dynstat_g_wvel_min        =   0.0000000000000E+00
(PID.TID 0000.0001) %MON g__dynstat_g_wvel_mean       =   0.0000000000000E+00
(PID.TID 0000.0001) %MON g__dynstat_g_wvel_sd         =   0.0000000000000E+00
(PID.TID 0000.0001) %MON g__dynstat_g_wvel_del2       =   0.0000000000000E+00
(PID.TID 0000.0001) %MON g__dynstat_g_theta_max       =   0.0000000000000E+00
(PID.TID 0000.0001) %MON g__dynstat_g_theta_min       =   0.0000000000000E+00
(PID.TID 0000.0001) %MON g__dynstat_g_theta_mean      =   0.0000000000000E+00
(PID.TID 0000.0001) %MON g__dynstat_g_theta_sd        =   0.0000000000000E+00
(PID.TID 0000.0001) %MON g__dynstat_g_theta_del2      =   0.0000000000000E+00
(PID.TID 0000.0001) %MON g__dynstat_g_salt_max        =   0.0000000000000E+00
(PID.TID 0000.0001) %MON g__dynstat_g_salt_min        =   0.0000000000000E+00
(PID.TID 0000.0001) %MON g__dynstat_g_salt_mean       =   0.0000000000000E+00
(PID.TID 0000.0001) %MON g__dynstat_g_salt_sd         =   0.0000000000000E+00
(PID.TID 0000.0001) %MON g__dynstat_g_salt_del2       =   0.0000000000000E+00
(PID.TID 0000.0001) %MON g__dynstat_g_sst_max         =   0.0000000000000E+00
(PID.TID 0000.0001) %MON g__dynstat_g_sst_min         =   0.0000000000000E+00
(PID.TID 0000.0001) %MON g__dynstat_g_sst_mean        =   0.0000000000000E+00
(PID.TID 0000.0001) %MON g__dynstat_g_sst_sd          =   0.0000000000000E+00
(PID.TID 0000.0001) %MON g__dynstat_g_sst_del2        =   0.0000000000000E+00
(PID.TID 0000.0001) %MON g__dynstat_g_sss_max         =   0.0000000000000E+00
(PID.TID 0000.0001) %MON g__dynstat_g_sss_min         =   0.0000000000000E+00
(PID.TID 0000.0001) %MON g__dynstat_g_sss_mean        =   0.0000000000000E+00
(PID.TID 0000.0001) %MON g__dynstat_g_sss_sd          =   0.0000000000000E+00
(PID.TID 0000.0001) %MON g__dynstat_g_sss_del2        =   0.0000000000000E+00
(PID.TID 0000.0001) %MON g__extforcing_g_qnet_max     =   0.0000000000000E+00
(PID.TID 0000.0001) %MON g__extforcing_g_qnet_min     =   0.0000000000000E+00
(PID.TID 0000.0001) %MON g__extforcing_g_qnet_mean    =   0.0000000000000E+00
(PID.TID 0000.0001) %MON g__extforcing_g_qnet_sd      =   0.0000000000000E+00
(PID.TID 0000.0001) %MON g__extforcing_g_qnet_del2    =   0.0000000000000E+00
(PID.TID 0000.0001) %MON g__extforcing_g_empmr_max    =   0.0000000000000E+00
(PID.TID 0000.0001) %MON g__extforcing_g_empmr_min    =   0.0000000000000E+00
(PID.TID 0000.0001) %MON g__extforcing_g_empmr_mean   =   0.0000000000000E+00
(PID.TID 0000.0001) %MON g__extforcing_g_empmr_sd     =   0.0000000000000E+00
(PID.TID 0000.0001) %MON g__extforcing_g_empmr_del2   =   0.0000000000000E+00
(PID.TID 0000.0001) %MON g__extforcing_g_fu_max       =   0.0000000000000E+00
(PID.TID 0000.0001) %MON g__extforcing_g_fu_min       =   0.0000000000000E+00
(PID.TID 0000.0001) %MON g__extforcing_g_fu_mean      =   0.0000000000000E+00
(PID.TID 0000.0001) %MON g__extforcing_g_fu_sd        =   0.0000000000000E+00
(PID.TID 0000.0001) %MON g__extforcing_g_fu_del2      =   0.0000000000000E+00
(PID.TID 0000.0001) %MON g__extforcing_g_fv_max       =   0.0000000000000E+00
(PID.TID 0000.0001) %MON g__extforcing_g_fv_min       =   0.0000000000000E+00
(PID.TID 0000.0001) %MON g__extforcing_g_fv_mean      =   0.0000000000000E+00
(PID.TID 0000.0001) %MON g__extforcing_g_fv_sd        =   0.0000000000000E+00
(PID.TID 0000.0001) %MON g__extforcing_g_fv_del2      =   0.0000000000000E+00
(PID.TID 0000.0001) %MON g__g_vcfl_g_uvel_max         =   0.0000000000000E+00
(PID.TID 0000.0001) %MON g__g_vcfl_g_vvel_max         =   0.0000000000000E+00
(PID.TID 0000.0001) %MON g__g_vcfl_g_wvel_max         =   0.0000000000000E+00
(PID.TID 0000.0001) %MON g__g_vcfl_g_W_hf_max         =   0.0000000000000E+00
(PID.TID 0000.0001) // =======================================================
(PID.TID 0000.0001) // End MONITOR dynamic field statistics
(PID.TID 0000.0001) // =======================================================
 cg2d: Sum(rhs),rhsMax =   0.00000000000000E+00  0.00000000000000E+00
 cg2d: Sum(rhs),rhsMax =  -7.37328600952658E-13  8.55637530605071E+00
(PID.TID 0000.0001) // =======================================================
(PID.TID 0000.0001) // Begin MONITOR dynamic field statistics
(PID.TID 0000.0001) // =======================================================
(PID.TID 0000.0001) %MON g__time_tsnumber             =                    13
(PID.TID 0000.0001) %MON g__time_secondsf             =   5.6160000000000E+05
(PID.TID 0000.0001) %MON g__dynstat_g_eta_max         =   0.0000000000000E+00
(PID.TID 0000.0001) %MON g__dynstat_g_eta_min         =   0.0000000000000E+00
(PID.TID 0000.0001) %MON g__dynstat_g_eta_mean        =   0.0000000000000E+00
(PID.TID 0000.0001) %MON g__dynstat_g_eta_sd          =   0.0000000000000E+00
(PID.TID 0000.0001) %MON g__dynstat_g_eta_del2        =   0.0000000000000E+00
(PID.TID 0000.0001) %MON g__dynstat_g_uvel_max        =   0.0000000000000E+00
(PID.TID 0000.0001) %MON g__dynstat_g_uvel_min        =   0.0000000000000E+00
(PID.TID 0000.0001) %MON g__dynstat_g_uvel_mean       =   0.0000000000000E+00
(PID.TID 0000.0001) %MON g__dynstat_g_uvel_sd         =   0.0000000000000E+00
(PID.TID 0000.0001) %MON g__dynstat_g_uvel_del2       =   0.0000000000000E+00
(PID.TID 0000.0001) %MON g__dynstat_g_vvel_max        =   0.0000000000000E+00
(PID.TID 0000.0001) %MON g__dynstat_g_vvel_min        =   0.0000000000000E+00
(PID.TID 0000.0001) %MON g__dynstat_g_vvel_mean       =   0.0000000000000E+00
(PID.TID 0000.0001) %MON g__dynstat_g_vvel_sd         =   0.0000000000000E+00
(PID.TID 0000.0001) %MON g__dynstat_g_vvel_del2       =   0.0000000000000E+00
(PID.TID 0000.0001) %MON g__dynstat_g_wvel_max        =   0.0000000000000E+00
(PID.TID 0000.0001) %MON g__dynstat_g_wvel_min        =   0.0000000000000E+00
(PID.TID 0000.0001) %MON g__dynstat_g_wvel_mean       =   0.0000000000000E+00
(PID.TID 0000.0001) %MON g__dynstat_g_wvel_sd         =   0.0000000000000E+00
(PID.TID 0000.0001) %MON g__dynstat_g_wvel_del2       =   0.0000000000000E+00
(PID.TID 0000.0001) %MON g__dynstat_g_theta_max       =   0.0000000000000E+00
(PID.TID 0000.0001) %MON g__dynstat_g_theta_min       =   0.0000000000000E+00
(PID.TID 0000.0001) %MON g__dynstat_g_theta_mean      =   0.0000000000000E+00
(PID.TID 0000.0001) %MON g__dynstat_g_theta_sd        =   0.0000000000000E+00
(PID.TID 0000.0001) %MON g__dynstat_g_theta_del2      =   0.0000000000000E+00
(PID.TID 0000.0001) %MON g__dynstat_g_salt_max        =   0.0000000000000E+00
(PID.TID 0000.0001) %MON g__dynstat_g_salt_min        =   0.0000000000000E+00
(PID.TID 0000.0001) %MON g__dynstat_g_salt_mean       =   0.0000000000000E+00
(PID.TID 0000.0001) %MON g__dynstat_g_salt_sd         =   0.0000000000000E+00
(PID.TID 0000.0001) %MON g__dynstat_g_salt_del2       =   0.0000000000000E+00
(PID.TID 0000.0001) %MON g__dynstat_g_sst_max         =   0.0000000000000E+00
(PID.TID 0000.0001) %MON g__dynstat_g_sst_min         =   0.0000000000000E+00
(PID.TID 0000.0001) %MON g__dynstat_g_sst_mean        =   0.0000000000000E+00
(PID.TID 0000.0001) %MON g__dynstat_g_sst_sd          =   0.0000000000000E+00
(PID.TID 0000.0001) %MON g__dynstat_g_sst_del2        =   0.0000000000000E+00
(PID.TID 0000.0001) %MON g__dynstat_g_sss_max         =   0.0000000000000E+00
(PID.TID 0000.0001) %MON g__dynstat_g_sss_min         =   0.0000000000000E+00
(PID.TID 0000.0001) %MON g__dynstat_g_sss_mean        =   0.0000000000000E+00
(PID.TID 0000.0001) %MON g__dynstat_g_sss_sd          =   0.0000000000000E+00
(PID.TID 0000.0001) %MON g__dynstat_g_sss_del2        =   0.0000000000000E+00
(PID.TID 0000.0001) %MON g__extforcing_g_qnet_max     =   0.0000000000000E+00
(PID.TID 0000.0001) %MON g__extforcing_g_qnet_min     =   0.0000000000000E+00
(PID.TID 0000.0001) %MON g__extforcing_g_qnet_mean    =   0.0000000000000E+00
(PID.TID 0000.0001) %MON g__extforcing_g_qnet_sd      =   0.0000000000000E+00
(PID.TID 0000.0001) %MON g__extforcing_g_qnet_del2    =   0.0000000000000E+00
(PID.TID 0000.0001) %MON g__extforcing_g_empmr_max    =   0.0000000000000E+00
(PID.TID 0000.0001) %MON g__extforcing_g_empmr_min    =   0.0000000000000E+00
(PID.TID 0000.0001) %MON g__extforcing_g_empmr_mean   =   0.0000000000000E+00
(PID.TID 0000.0001) %MON g__extforcing_g_empmr_sd     =   0.0000000000000E+00
(PID.TID 0000.0001) %MON g__extforcing_g_empmr_del2   =   0.0000000000000E+00
(PID.TID 0000.0001) %MON g__extforcing_g_fu_max       =   0.0000000000000E+00
(PID.TID 0000.0001) %MON g__extforcing_g_fu_min       =   0.0000000000000E+00
(PID.TID 0000.0001) %MON g__extforcing_g_fu_mean      =   0.0000000000000E+00
(PID.TID 0000.0001) %MON g__extforcing_g_fu_sd        =   0.0000000000000E+00
(PID.TID 0000.0001) %MON g__extforcing_g_fu_del2      =   0.0000000000000E+00
(PID.TID 0000.0001) %MON g__extforcing_g_fv_max       =   0.0000000000000E+00
(PID.TID 0000.0001) %MON g__extforcing_g_fv_min       =   0.0000000000000E+00
(PID.TID 0000.0001) %MON g__extforcing_g_fv_mean      =   0.0000000000000E+00
(PID.TID 0000.0001) %MON g__extforcing_g_fv_sd        =   0.0000000000000E+00
(PID.TID 0000.0001) %MON g__extforcing_g_fv_del2      =   0.0000000000000E+00
(PID.TID 0000.0001) %MON g__g_vcfl_g_uvel_max         =   0.0000000000000E+00
(PID.TID 0000.0001) %MON g__g_vcfl_g_vvel_max         =   0.0000000000000E+00
(PID.TID 0000.0001) %MON g__g_vcfl_g_wvel_max         =   0.0000000000000E+00
(PID.TID 0000.0001) %MON g__g_vcfl_g_W_hf_max         =   0.0000000000000E+00
(PID.TID 0000.0001) // =======================================================
(PID.TID 0000.0001) // End MONITOR dynamic field statistics
(PID.TID 0000.0001) // =======================================================
 cg2d: Sum(rhs),rhsMax =   0.00000000000000E+00  0.00000000000000E+00
 cg2d: Sum(rhs),rhsMax =  -8.18055692630715E-13  9.25214403713224E+00
(PID.TID 0000.0001) // =======================================================
(PID.TID 0000.0001) // Begin MONITOR dynamic field statistics
(PID.TID 0000.0001) // =======================================================
(PID.TID 0000.0001) %MON g__time_tsnumber             =                    14
(PID.TID 0000.0001) %MON g__time_secondsf             =   6.0480000000000E+05
(PID.TID 0000.0001) %MON g__dynstat_g_eta_max         =   0.0000000000000E+00
(PID.TID 0000.0001) %MON g__dynstat_g_eta_min         =   0.0000000000000E+00
(PID.TID 0000.0001) %MON g__dynstat_g_eta_mean        =   0.0000000000000E+00
(PID.TID 0000.0001) %MON g__dynstat_g_eta_sd          =   0.0000000000000E+00
(PID.TID 0000.0001) %MON g__dynstat_g_eta_del2        =   0.0000000000000E+00
(PID.TID 0000.0001) %MON g__dynstat_g_uvel_max        =   0.0000000000000E+00
(PID.TID 0000.0001) %MON g__dynstat_g_uvel_min        =   0.0000000000000E+00
(PID.TID 0000.0001) %MON g__dynstat_g_uvel_mean       =   0.0000000000000E+00
(PID.TID 0000.0001) %MON g__dynstat_g_uvel_sd         =   0.0000000000000E+00
(PID.TID 0000.0001) %MON g__dynstat_g_uvel_del2       =   0.0000000000000E+00
(PID.TID 0000.0001) %MON g__dynstat_g_vvel_max        =   0.0000000000000E+00
(PID.TID 0000.0001) %MON g__dynstat_g_vvel_min        =   0.0000000000000E+00
(PID.TID 0000.0001) %MON g__dynstat_g_vvel_mean       =   0.0000000000000E+00
(PID.TID 0000.0001) %MON g__dynstat_g_vvel_sd         =   0.0000000000000E+00
(PID.TID 0000.0001) %MON g__dynstat_g_vvel_del2       =   0.0000000000000E+00
(PID.TID 0000.0001) %MON g__dynstat_g_wvel_max        =   0.0000000000000E+00
(PID.TID 0000.0001) %MON g__dynstat_g_wvel_min        =   0.0000000000000E+00
(PID.TID 0000.0001) %MON g__dynstat_g_wvel_mean       =   0.0000000000000E+00
(PID.TID 0000.0001) %MON g__dynstat_g_wvel_sd         =   0.0000000000000E+00
(PID.TID 0000.0001) %MON g__dynstat_g_wvel_del2       =   0.0000000000000E+00
(PID.TID 0000.0001) %MON g__dynstat_g_theta_max       =   0.0000000000000E+00
(PID.TID 0000.0001) %MON g__dynstat_g_theta_min       =   0.0000000000000E+00
(PID.TID 0000.0001) %MON g__dynstat_g_theta_mean      =   0.0000000000000E+00
(PID.TID 0000.0001) %MON g__dynstat_g_theta_sd        =   0.0000000000000E+00
(PID.TID 0000.0001) %MON g__dynstat_g_theta_del2      =   0.0000000000000E+00
(PID.TID 0000.0001) %MON g__dynstat_g_salt_max        =   0.0000000000000E+00
(PID.TID 0000.0001) %MON g__dynstat_g_salt_min        =   0.0000000000000E+00
(PID.TID 0000.0001) %MON g__dynstat_g_salt_mean       =   0.0000000000000E+00
(PID.TID 0000.0001) %MON g__dynstat_g_salt_sd         =   0.0000000000000E+00
(PID.TID 0000.0001) %MON g__dynstat_g_salt_del2       =   0.0000000000000E+00
(PID.TID 0000.0001) %MON g__dynstat_g_sst_max         =   0.0000000000000E+00
(PID.TID 0000.0001) %MON g__dynstat_g_sst_min         =   0.0000000000000E+00
(PID.TID 0000.0001) %MON g__dynstat_g_sst_mean        =   0.0000000000000E+00
(PID.TID 0000.0001) %MON g__dynstat_g_sst_sd          =   0.0000000000000E+00
(PID.TID 0000.0001) %MON g__dynstat_g_sst_del2        =   0.0000000000000E+00
(PID.TID 0000.0001) %MON g__dynstat_g_sss_max         =   0.0000000000000E+00
(PID.TID 0000.0001) %MON g__dynstat_g_sss_min         =   0.0000000000000E+00
(PID.TID 0000.0001) %MON g__dynstat_g_sss_mean        =   0.0000000000000E+00
(PID.TID 0000.0001) %MON g__dynstat_g_sss_sd          =   0.0000000000000E+00
(PID.TID 0000.0001) %MON g__dynstat_g_sss_del2        =   0.0000000000000E+00
(PID.TID 0000.0001) %MON g__extforcing_g_qnet_max     =   0.0000000000000E+00
(PID.TID 0000.0001) %MON g__extforcing_g_qnet_min     =   0.0000000000000E+00
(PID.TID 0000.0001) %MON g__extforcing_g_qnet_mean    =   0.0000000000000E+00
(PID.TID 0000.0001) %MON g__extforcing_g_qnet_sd      =   0.0000000000000E+00
(PID.TID 0000.0001) %MON g__extforcing_g_qnet_del2    =   0.0000000000000E+00
(PID.TID 0000.0001) %MON g__extforcing_g_empmr_max    =   0.0000000000000E+00
(PID.TID 0000.0001) %MON g__extforcing_g_empmr_min    =   0.0000000000000E+00
(PID.TID 0000.0001) %MON g__extforcing_g_empmr_mean   =   0.0000000000000E+00
(PID.TID 0000.0001) %MON g__extforcing_g_empmr_sd     =   0.0000000000000E+00
(PID.TID 0000.0001) %MON g__extforcing_g_empmr_del2   =   0.0000000000000E+00
(PID.TID 0000.0001) %MON g__extforcing_g_fu_max       =   0.0000000000000E+00
(PID.TID 0000.0001) %MON g__extforcing_g_fu_min       =   0.0000000000000E+00
(PID.TID 0000.0001) %MON g__extforcing_g_fu_mean      =   0.0000000000000E+00
(PID.TID 0000.0001) %MON g__extforcing_g_fu_sd        =   0.0000000000000E+00
(PID.TID 0000.0001) %MON g__extforcing_g_fu_del2      =   0.0000000000000E+00
(PID.TID 0000.0001) %MON g__extforcing_g_fv_max       =   0.0000000000000E+00
(PID.TID 0000.0001) %MON g__extforcing_g_fv_min       =   0.0000000000000E+00
(PID.TID 0000.0001) %MON g__extforcing_g_fv_mean      =   0.0000000000000E+00
(PID.TID 0000.0001) %MON g__extforcing_g_fv_sd        =   0.0000000000000E+00
(PID.TID 0000.0001) %MON g__extforcing_g_fv_del2      =   0.0000000000000E+00
(PID.TID 0000.0001) %MON g__g_vcfl_g_uvel_max         =   0.0000000000000E+00
(PID.TID 0000.0001) %MON g__g_vcfl_g_vvel_max         =   0.0000000000000E+00
(PID.TID 0000.0001) %MON g__g_vcfl_g_wvel_max         =   0.0000000000000E+00
(PID.TID 0000.0001) %MON g__g_vcfl_g_W_hf_max         =   0.0000000000000E+00
(PID.TID 0000.0001) // =======================================================
(PID.TID 0000.0001) // End MONITOR dynamic field statistics
(PID.TID 0000.0001) // =======================================================
 cg2d: Sum(rhs),rhsMax =   0.00000000000000E+00  0.00000000000000E+00
 cg2d: Sum(rhs),rhsMax =  -9.67533345108684E-13  9.75412758742915E+00
(PID.TID 0000.0001) // =======================================================
(PID.TID 0000.0001) // Begin MONITOR dynamic field statistics
(PID.TID 0000.0001) // =======================================================
(PID.TID 0000.0001) %MON g__time_tsnumber             =                    15
(PID.TID 0000.0001) %MON g__time_secondsf             =   6.4800000000000E+05
(PID.TID 0000.0001) %MON g__dynstat_g_eta_max         =   0.0000000000000E+00
(PID.TID 0000.0001) %MON g__dynstat_g_eta_min         =   0.0000000000000E+00
(PID.TID 0000.0001) %MON g__dynstat_g_eta_mean        =   0.0000000000000E+00
(PID.TID 0000.0001) %MON g__dynstat_g_eta_sd          =   0.0000000000000E+00
(PID.TID 0000.0001) %MON g__dynstat_g_eta_del2        =   0.0000000000000E+00
(PID.TID 0000.0001) %MON g__dynstat_g_uvel_max        =   0.0000000000000E+00
(PID.TID 0000.0001) %MON g__dynstat_g_uvel_min        =   0.0000000000000E+00
(PID.TID 0000.0001) %MON g__dynstat_g_uvel_mean       =   0.0000000000000E+00
(PID.TID 0000.0001) %MON g__dynstat_g_uvel_sd         =   0.0000000000000E+00
(PID.TID 0000.0001) %MON g__dynstat_g_uvel_del2       =   0.0000000000000E+00
(PID.TID 0000.0001) %MON g__dynstat_g_vvel_max        =   0.0000000000000E+00
(PID.TID 0000.0001) %MON g__dynstat_g_vvel_min        =   0.0000000000000E+00
(PID.TID 0000.0001) %MON g__dynstat_g_vvel_mean       =   0.0000000000000E+00
(PID.TID 0000.0001) %MON g__dynstat_g_vvel_sd         =   0.0000000000000E+00
(PID.TID 0000.0001) %MON g__dynstat_g_vvel_del2       =   0.0000000000000E+00
(PID.TID 0000.0001) %MON g__dynstat_g_wvel_max        =   0.0000000000000E+00
(PID.TID 0000.0001) %MON g__dynstat_g_wvel_min        =   0.0000000000000E+00
(PID.TID 0000.0001) %MON g__dynstat_g_wvel_mean       =   0.0000000000000E+00
(PID.TID 0000.0001) %MON g__dynstat_g_wvel_sd         =   0.0000000000000E+00
(PID.TID 0000.0001) %MON g__dynstat_g_wvel_del2       =   0.0000000000000E+00
(PID.TID 0000.0001) %MON g__dynstat_g_theta_max       =   0.0000000000000E+00
(PID.TID 0000.0001) %MON g__dynstat_g_theta_min       =   0.0000000000000E+00
(PID.TID 0000.0001) %MON g__dynstat_g_theta_mean      =   0.0000000000000E+00
(PID.TID 0000.0001) %MON g__dynstat_g_theta_sd        =   0.0000000000000E+00
(PID.TID 0000.0001) %MON g__dynstat_g_theta_del2      =   0.0000000000000E+00
(PID.TID 0000.0001) %MON g__dynstat_g_salt_max        =   0.0000000000000E+00
(PID.TID 0000.0001) %MON g__dynstat_g_salt_min        =   0.0000000000000E+00
(PID.TID 0000.0001) %MON g__dynstat_g_salt_mean       =   0.0000000000000E+00
(PID.TID 0000.0001) %MON g__dynstat_g_salt_sd         =   0.0000000000000E+00
(PID.TID 0000.0001) %MON g__dynstat_g_salt_del2       =   0.0000000000000E+00
(PID.TID 0000.0001) %MON g__dynstat_g_sst_max         =   0.0000000000000E+00
(PID.TID 0000.0001) %MON g__dynstat_g_sst_min         =   0.0000000000000E+00
(PID.TID 0000.0001) %MON g__dynstat_g_sst_mean        =   0.0000000000000E+00
(PID.TID 0000.0001) %MON g__dynstat_g_sst_sd          =   0.0000000000000E+00
(PID.TID 0000.0001) %MON g__dynstat_g_sst_del2        =   0.0000000000000E+00
(PID.TID 0000.0001) %MON g__dynstat_g_sss_max         =   0.0000000000000E+00
(PID.TID 0000.0001) %MON g__dynstat_g_sss_min         =   0.0000000000000E+00
(PID.TID 0000.0001) %MON g__dynstat_g_sss_mean        =   0.0000000000000E+00
(PID.TID 0000.0001) %MON g__dynstat_g_sss_sd          =   0.0000000000000E+00
(PID.TID 0000.0001) %MON g__dynstat_g_sss_del2        =   0.0000000000000E+00
(PID.TID 0000.0001) %MON g__extforcing_g_qnet_max     =   0.0000000000000E+00
(PID.TID 0000.0001) %MON g__extforcing_g_qnet_min     =   0.0000000000000E+00
(PID.TID 0000.0001) %MON g__extforcing_g_qnet_mean    =   0.0000000000000E+00
(PID.TID 0000.0001) %MON g__extforcing_g_qnet_sd      =   0.0000000000000E+00
(PID.TID 0000.0001) %MON g__extforcing_g_qnet_del2    =   0.0000000000000E+00
(PID.TID 0000.0001) %MON g__extforcing_g_empmr_max    =   0.0000000000000E+00
(PID.TID 0000.0001) %MON g__extforcing_g_empmr_min    =   0.0000000000000E+00
(PID.TID 0000.0001) %MON g__extforcing_g_empmr_mean   =   0.0000000000000E+00
(PID.TID 0000.0001) %MON g__extforcing_g_empmr_sd     =   0.0000000000000E+00
(PID.TID 0000.0001) %MON g__extforcing_g_empmr_del2   =   0.0000000000000E+00
(PID.TID 0000.0001) %MON g__extforcing_g_fu_max       =   0.0000000000000E+00
(PID.TID 0000.0001) %MON g__extforcing_g_fu_min       =   0.0000000000000E+00
(PID.TID 0000.0001) %MON g__extforcing_g_fu_mean      =   0.0000000000000E+00
(PID.TID 0000.0001) %MON g__extforcing_g_fu_sd        =   0.0000000000000E+00
(PID.TID 0000.0001) %MON g__extforcing_g_fu_del2      =   0.0000000000000E+00
(PID.TID 0000.0001) %MON g__extforcing_g_fv_max       =   0.0000000000000E+00
(PID.TID 0000.0001) %MON g__extforcing_g_fv_min       =   0.0000000000000E+00
(PID.TID 0000.0001) %MON g__extforcing_g_fv_mean      =   0.0000000000000E+00
(PID.TID 0000.0001) %MON g__extforcing_g_fv_sd        =   0.0000000000000E+00
(PID.TID 0000.0001) %MON g__extforcing_g_fv_del2      =   0.0000000000000E+00
(PID.TID 0000.0001) %MON g__g_vcfl_g_uvel_max         =   0.0000000000000E+00
(PID.TID 0000.0001) %MON g__g_vcfl_g_vvel_max         =   0.0000000000000E+00
(PID.TID 0000.0001) %MON g__g_vcfl_g_wvel_max         =   0.0000000000000E+00
(PID.TID 0000.0001) %MON g__g_vcfl_g_W_hf_max         =   0.0000000000000E+00
(PID.TID 0000.0001) // =======================================================
(PID.TID 0000.0001) // End MONITOR dynamic field statistics
(PID.TID 0000.0001) // =======================================================
 cg2d: Sum(rhs),rhsMax =   0.00000000000000E+00  0.00000000000000E+00
 cg2d: Sum(rhs),rhsMax =  -9.21351536731230E-13  1.00472791850534E+01
(PID.TID 0000.0001) // =======================================================
(PID.TID 0000.0001) // Begin MONITOR dynamic field statistics
(PID.TID 0000.0001) // =======================================================
(PID.TID 0000.0001) %MON g__time_tsnumber             =                    16
(PID.TID 0000.0001) %MON g__time_secondsf             =   6.9120000000000E+05
(PID.TID 0000.0001) %MON g__dynstat_g_eta_max         =   0.0000000000000E+00
(PID.TID 0000.0001) %MON g__dynstat_g_eta_min         =   0.0000000000000E+00
(PID.TID 0000.0001) %MON g__dynstat_g_eta_mean        =   0.0000000000000E+00
(PID.TID 0000.0001) %MON g__dynstat_g_eta_sd          =   0.0000000000000E+00
(PID.TID 0000.0001) %MON g__dynstat_g_eta_del2        =   0.0000000000000E+00
(PID.TID 0000.0001) %MON g__dynstat_g_uvel_max        =   0.0000000000000E+00
(PID.TID 0000.0001) %MON g__dynstat_g_uvel_min        =   0.0000000000000E+00
(PID.TID 0000.0001) %MON g__dynstat_g_uvel_mean       =   0.0000000000000E+00
(PID.TID 0000.0001) %MON g__dynstat_g_uvel_sd         =   0.0000000000000E+00
(PID.TID 0000.0001) %MON g__dynstat_g_uvel_del2       =   0.0000000000000E+00
(PID.TID 0000.0001) %MON g__dynstat_g_vvel_max        =   0.0000000000000E+00
(PID.TID 0000.0001) %MON g__dynstat_g_vvel_min        =   0.0000000000000E+00
(PID.TID 0000.0001) %MON g__dynstat_g_vvel_mean       =   0.0000000000000E+00
(PID.TID 0000.0001) %MON g__dynstat_g_vvel_sd         =   0.0000000000000E+00
(PID.TID 0000.0001) %MON g__dynstat_g_vvel_del2       =   0.0000000000000E+00
(PID.TID 0000.0001) %MON g__dynstat_g_wvel_max        =   0.0000000000000E+00
(PID.TID 0000.0001) %MON g__dynstat_g_wvel_min        =   0.0000000000000E+00
(PID.TID 0000.0001) %MON g__dynstat_g_wvel_mean       =   0.0000000000000E+00
(PID.TID 0000.0001) %MON g__dynstat_g_wvel_sd         =   0.0000000000000E+00
(PID.TID 0000.0001) %MON g__dynstat_g_wvel_del2       =   0.0000000000000E+00
(PID.TID 0000.0001) %MON g__dynstat_g_theta_max       =   0.0000000000000E+00
(PID.TID 0000.0001) %MON g__dynstat_g_theta_min       =   0.0000000000000E+00
(PID.TID 0000.0001) %MON g__dynstat_g_theta_mean      =   0.0000000000000E+00
(PID.TID 0000.0001) %MON g__dynstat_g_theta_sd        =   0.0000000000000E+00
(PID.TID 0000.0001) %MON g__dynstat_g_theta_del2      =   0.0000000000000E+00
(PID.TID 0000.0001) %MON g__dynstat_g_salt_max        =   0.0000000000000E+00
(PID.TID 0000.0001) %MON g__dynstat_g_salt_min        =   0.0000000000000E+00
(PID.TID 0000.0001) %MON g__dynstat_g_salt_mean       =   0.0000000000000E+00
(PID.TID 0000.0001) %MON g__dynstat_g_salt_sd         =   0.0000000000000E+00
(PID.TID 0000.0001) %MON g__dynstat_g_salt_del2       =   0.0000000000000E+00
(PID.TID 0000.0001) %MON g__dynstat_g_sst_max         =   0.0000000000000E+00
(PID.TID 0000.0001) %MON g__dynstat_g_sst_min         =   0.0000000000000E+00
(PID.TID 0000.0001) %MON g__dynstat_g_sst_mean        =   0.0000000000000E+00
(PID.TID 0000.0001) %MON g__dynstat_g_sst_sd          =   0.0000000000000E+00
(PID.TID 0000.0001) %MON g__dynstat_g_sst_del2        =   0.0000000000000E+00
(PID.TID 0000.0001) %MON g__dynstat_g_sss_max         =   0.0000000000000E+00
(PID.TID 0000.0001) %MON g__dynstat_g_sss_min         =   0.0000000000000E+00
(PID.TID 0000.0001) %MON g__dynstat_g_sss_mean        =   0.0000000000000E+00
(PID.TID 0000.0001) %MON g__dynstat_g_sss_sd          =   0.0000000000000E+00
(PID.TID 0000.0001) %MON g__dynstat_g_sss_del2        =   0.0000000000000E+00
(PID.TID 0000.0001) %MON g__extforcing_g_qnet_max     =   0.0000000000000E+00
(PID.TID 0000.0001) %MON g__extforcing_g_qnet_min     =   0.0000000000000E+00
(PID.TID 0000.0001) %MON g__extforcing_g_qnet_mean    =   0.0000000000000E+00
(PID.TID 0000.0001) %MON g__extforcing_g_qnet_sd      =   0.0000000000000E+00
(PID.TID 0000.0001) %MON g__extforcing_g_qnet_del2    =   0.0000000000000E+00
(PID.TID 0000.0001) %MON g__extforcing_g_empmr_max    =   0.0000000000000E+00
(PID.TID 0000.0001) %MON g__extforcing_g_empmr_min    =   0.0000000000000E+00
(PID.TID 0000.0001) %MON g__extforcing_g_empmr_mean   =   0.0000000000000E+00
(PID.TID 0000.0001) %MON g__extforcing_g_empmr_sd     =   0.0000000000000E+00
(PID.TID 0000.0001) %MON g__extforcing_g_empmr_del2   =   0.0000000000000E+00
(PID.TID 0000.0001) %MON g__extforcing_g_fu_max       =   0.0000000000000E+00
(PID.TID 0000.0001) %MON g__extforcing_g_fu_min       =   0.0000000000000E+00
(PID.TID 0000.0001) %MON g__extforcing_g_fu_mean      =   0.0000000000000E+00
(PID.TID 0000.0001) %MON g__extforcing_g_fu_sd        =   0.0000000000000E+00
(PID.TID 0000.0001) %MON g__extforcing_g_fu_del2      =   0.0000000000000E+00
(PID.TID 0000.0001) %MON g__extforcing_g_fv_max       =   0.0000000000000E+00
(PID.TID 0000.0001) %MON g__extforcing_g_fv_min       =   0.0000000000000E+00
(PID.TID 0000.0001) %MON g__extforcing_g_fv_mean      =   0.0000000000000E+00
(PID.TID 0000.0001) %MON g__extforcing_g_fv_sd        =   0.0000000000000E+00
(PID.TID 0000.0001) %MON g__extforcing_g_fv_del2      =   0.0000000000000E+00
(PID.TID 0000.0001) %MON g__g_vcfl_g_uvel_max         =   0.0000000000000E+00
(PID.TID 0000.0001) %MON g__g_vcfl_g_vvel_max         =   0.0000000000000E+00
(PID.TID 0000.0001) %MON g__g_vcfl_g_wvel_max         =   0.0000000000000E+00
(PID.TID 0000.0001) %MON g__g_vcfl_g_W_hf_max         =   0.0000000000000E+00
(PID.TID 0000.0001) // =======================================================
(PID.TID 0000.0001) // End MONITOR dynamic field statistics
(PID.TID 0000.0001) // =======================================================
 cg2d: Sum(rhs),rhsMax =   0.00000000000000E+00  0.00000000000000E+00
 cg2d: Sum(rhs),rhsMax =  -9.52874931736680E-13  1.01282964952821E+01
(PID.TID 0000.0001) // =======================================================
(PID.TID 0000.0001) // Begin MONITOR dynamic field statistics
(PID.TID 0000.0001) // =======================================================
(PID.TID 0000.0001) %MON g__time_tsnumber             =                    17
(PID.TID 0000.0001) %MON g__time_secondsf             =   7.3440000000000E+05
(PID.TID 0000.0001) %MON g__dynstat_g_eta_max         =   0.0000000000000E+00
(PID.TID 0000.0001) %MON g__dynstat_g_eta_min         =   0.0000000000000E+00
(PID.TID 0000.0001) %MON g__dynstat_g_eta_mean        =   0.0000000000000E+00
(PID.TID 0000.0001) %MON g__dynstat_g_eta_sd          =   0.0000000000000E+00
(PID.TID 0000.0001) %MON g__dynstat_g_eta_del2        =   0.0000000000000E+00
(PID.TID 0000.0001) %MON g__dynstat_g_uvel_max        =   0.0000000000000E+00
(PID.TID 0000.0001) %MON g__dynstat_g_uvel_min        =   0.0000000000000E+00
(PID.TID 0000.0001) %MON g__dynstat_g_uvel_mean       =   0.0000000000000E+00
(PID.TID 0000.0001) %MON g__dynstat_g_uvel_sd         =   0.0000000000000E+00
(PID.TID 0000.0001) %MON g__dynstat_g_uvel_del2       =   0.0000000000000E+00
(PID.TID 0000.0001) %MON g__dynstat_g_vvel_max        =   0.0000000000000E+00
(PID.TID 0000.0001) %MON g__dynstat_g_vvel_min        =   0.0000000000000E+00
(PID.TID 0000.0001) %MON g__dynstat_g_vvel_mean       =   0.0000000000000E+00
(PID.TID 0000.0001) %MON g__dynstat_g_vvel_sd         =   0.0000000000000E+00
(PID.TID 0000.0001) %MON g__dynstat_g_vvel_del2       =   0.0000000000000E+00
(PID.TID 0000.0001) %MON g__dynstat_g_wvel_max        =   0.0000000000000E+00
(PID.TID 0000.0001) %MON g__dynstat_g_wvel_min        =   0.0000000000000E+00
(PID.TID 0000.0001) %MON g__dynstat_g_wvel_mean       =   0.0000000000000E+00
(PID.TID 0000.0001) %MON g__dynstat_g_wvel_sd         =   0.0000000000000E+00
(PID.TID 0000.0001) %MON g__dynstat_g_wvel_del2       =   0.0000000000000E+00
(PID.TID 0000.0001) %MON g__dynstat_g_theta_max       =   0.0000000000000E+00
(PID.TID 0000.0001) %MON g__dynstat_g_theta_min       =   0.0000000000000E+00
(PID.TID 0000.0001) %MON g__dynstat_g_theta_mean      =   0.0000000000000E+00
(PID.TID 0000.0001) %MON g__dynstat_g_theta_sd        =   0.0000000000000E+00
(PID.TID 0000.0001) %MON g__dynstat_g_theta_del2      =   0.0000000000000E+00
(PID.TID 0000.0001) %MON g__dynstat_g_salt_max        =   0.0000000000000E+00
(PID.TID 0000.0001) %MON g__dynstat_g_salt_min        =   0.0000000000000E+00
(PID.TID 0000.0001) %MON g__dynstat_g_salt_mean       =   0.0000000000000E+00
(PID.TID 0000.0001) %MON g__dynstat_g_salt_sd         =   0.0000000000000E+00
(PID.TID 0000.0001) %MON g__dynstat_g_salt_del2       =   0.0000000000000E+00
(PID.TID 0000.0001) %MON g__dynstat_g_sst_max         =   0.0000000000000E+00
(PID.TID 0000.0001) %MON g__dynstat_g_sst_min         =   0.0000000000000E+00
(PID.TID 0000.0001) %MON g__dynstat_g_sst_mean        =   0.0000000000000E+00
(PID.TID 0000.0001) %MON g__dynstat_g_sst_sd          =   0.0000000000000E+00
(PID.TID 0000.0001) %MON g__dynstat_g_sst_del2        =   0.0000000000000E+00
(PID.TID 0000.0001) %MON g__dynstat_g_sss_max         =   0.0000000000000E+00
(PID.TID 0000.0001) %MON g__dynstat_g_sss_min         =   0.0000000000000E+00
(PID.TID 0000.0001) %MON g__dynstat_g_sss_mean        =   0.0000000000000E+00
(PID.TID 0000.0001) %MON g__dynstat_g_sss_sd          =   0.0000000000000E+00
(PID.TID 0000.0001) %MON g__dynstat_g_sss_del2        =   0.0000000000000E+00
(PID.TID 0000.0001) %MON g__extforcing_g_qnet_max     =   0.0000000000000E+00
(PID.TID 0000.0001) %MON g__extforcing_g_qnet_min     =   0.0000000000000E+00
(PID.TID 0000.0001) %MON g__extforcing_g_qnet_mean    =   0.0000000000000E+00
(PID.TID 0000.0001) %MON g__extforcing_g_qnet_sd      =   0.0000000000000E+00
(PID.TID 0000.0001) %MON g__extforcing_g_qnet_del2    =   0.0000000000000E+00
(PID.TID 0000.0001) %MON g__extforcing_g_empmr_max    =   0.0000000000000E+00
(PID.TID 0000.0001) %MON g__extforcing_g_empmr_min    =   0.0000000000000E+00
(PID.TID 0000.0001) %MON g__extforcing_g_empmr_mean   =   0.0000000000000E+00
(PID.TID 0000.0001) %MON g__extforcing_g_empmr_sd     =   0.0000000000000E+00
(PID.TID 0000.0001) %MON g__extforcing_g_empmr_del2   =   0.0000000000000E+00
(PID.TID 0000.0001) %MON g__extforcing_g_fu_max       =   0.0000000000000E+00
(PID.TID 0000.0001) %MON g__extforcing_g_fu_min       =   0.0000000000000E+00
(PID.TID 0000.0001) %MON g__extforcing_g_fu_mean      =   0.0000000000000E+00
(PID.TID 0000.0001) %MON g__extforcing_g_fu_sd        =   0.0000000000000E+00
(PID.TID 0000.0001) %MON g__extforcing_g_fu_del2      =   0.0000000000000E+00
(PID.TID 0000.0001) %MON g__extforcing_g_fv_max       =   0.0000000000000E+00
(PID.TID 0000.0001) %MON g__extforcing_g_fv_min       =   0.0000000000000E+00
(PID.TID 0000.0001) %MON g__extforcing_g_fv_mean      =   0.0000000000000E+00
(PID.TID 0000.0001) %MON g__extforcing_g_fv_sd        =   0.0000000000000E+00
(PID.TID 0000.0001) %MON g__extforcing_g_fv_del2      =   0.0000000000000E+00
(PID.TID 0000.0001) %MON g__g_vcfl_g_uvel_max         =   0.0000000000000E+00
(PID.TID 0000.0001) %MON g__g_vcfl_g_vvel_max         =   0.0000000000000E+00
(PID.TID 0000.0001) %MON g__g_vcfl_g_wvel_max         =   0.0000000000000E+00
(PID.TID 0000.0001) %MON g__g_vcfl_g_W_hf_max         =   0.0000000000000E+00
(PID.TID 0000.0001) // =======================================================
(PID.TID 0000.0001) // End MONITOR dynamic field statistics
(PID.TID 0000.0001) // =======================================================
 cg2d: Sum(rhs),rhsMax =   0.00000000000000E+00  0.00000000000000E+00
 cg2d: Sum(rhs),rhsMax =  -7.74356273547383E-13  1.00066236471320E+01
(PID.TID 0000.0001) // =======================================================
(PID.TID 0000.0001) // Begin MONITOR dynamic field statistics
(PID.TID 0000.0001) // =======================================================
(PID.TID 0000.0001) %MON g__time_tsnumber             =                    18
(PID.TID 0000.0001) %MON g__time_secondsf             =   7.7760000000000E+05
(PID.TID 0000.0001) %MON g__dynstat_g_eta_max         =   0.0000000000000E+00
(PID.TID 0000.0001) %MON g__dynstat_g_eta_min         =   0.0000000000000E+00
(PID.TID 0000.0001) %MON g__dynstat_g_eta_mean        =   0.0000000000000E+00
(PID.TID 0000.0001) %MON g__dynstat_g_eta_sd          =   0.0000000000000E+00
(PID.TID 0000.0001) %MON g__dynstat_g_eta_del2        =   0.0000000000000E+00
(PID.TID 0000.0001) %MON g__dynstat_g_uvel_max        =   0.0000000000000E+00
(PID.TID 0000.0001) %MON g__dynstat_g_uvel_min        =   0.0000000000000E+00
(PID.TID 0000.0001) %MON g__dynstat_g_uvel_mean       =   0.0000000000000E+00
(PID.TID 0000.0001) %MON g__dynstat_g_uvel_sd         =   0.0000000000000E+00
(PID.TID 0000.0001) %MON g__dynstat_g_uvel_del2       =   0.0000000000000E+00
(PID.TID 0000.0001) %MON g__dynstat_g_vvel_max        =   0.0000000000000E+00
(PID.TID 0000.0001) %MON g__dynstat_g_vvel_min        =   0.0000000000000E+00
(PID.TID 0000.0001) %MON g__dynstat_g_vvel_mean       =   0.0000000000000E+00
(PID.TID 0000.0001) %MON g__dynstat_g_vvel_sd         =   0.0000000000000E+00
(PID.TID 0000.0001) %MON g__dynstat_g_vvel_del2       =   0.0000000000000E+00
(PID.TID 0000.0001) %MON g__dynstat_g_wvel_max        =   0.0000000000000E+00
(PID.TID 0000.0001) %MON g__dynstat_g_wvel_min        =   0.0000000000000E+00
(PID.TID 0000.0001) %MON g__dynstat_g_wvel_mean       =   0.0000000000000E+00
(PID.TID 0000.0001) %MON g__dynstat_g_wvel_sd         =   0.0000000000000E+00
(PID.TID 0000.0001) %MON g__dynstat_g_wvel_del2       =   0.0000000000000E+00
(PID.TID 0000.0001) %MON g__dynstat_g_theta_max       =   0.0000000000000E+00
(PID.TID 0000.0001) %MON g__dynstat_g_theta_min       =   0.0000000000000E+00
(PID.TID 0000.0001) %MON g__dynstat_g_theta_mean      =   0.0000000000000E+00
(PID.TID 0000.0001) %MON g__dynstat_g_theta_sd        =   0.0000000000000E+00
(PID.TID 0000.0001) %MON g__dynstat_g_theta_del2      =   0.0000000000000E+00
(PID.TID 0000.0001) %MON g__dynstat_g_salt_max        =   0.0000000000000E+00
(PID.TID 0000.0001) %MON g__dynstat_g_salt_min        =   0.0000000000000E+00
(PID.TID 0000.0001) %MON g__dynstat_g_salt_mean       =   0.0000000000000E+00
(PID.TID 0000.0001) %MON g__dynstat_g_salt_sd         =   0.0000000000000E+00
(PID.TID 0000.0001) %MON g__dynstat_g_salt_del2       =   0.0000000000000E+00
(PID.TID 0000.0001) %MON g__dynstat_g_sst_max         =   0.0000000000000E+00
(PID.TID 0000.0001) %MON g__dynstat_g_sst_min         =   0.0000000000000E+00
(PID.TID 0000.0001) %MON g__dynstat_g_sst_mean        =   0.0000000000000E+00
(PID.TID 0000.0001) %MON g__dynstat_g_sst_sd          =   0.0000000000000E+00
(PID.TID 0000.0001) %MON g__dynstat_g_sst_del2        =   0.0000000000000E+00
(PID.TID 0000.0001) %MON g__dynstat_g_sss_max         =   0.0000000000000E+00
(PID.TID 0000.0001) %MON g__dynstat_g_sss_min         =   0.0000000000000E+00
(PID.TID 0000.0001) %MON g__dynstat_g_sss_mean        =   0.0000000000000E+00
(PID.TID 0000.0001) %MON g__dynstat_g_sss_sd          =   0.0000000000000E+00
(PID.TID 0000.0001) %MON g__dynstat_g_sss_del2        =   0.0000000000000E+00
(PID.TID 0000.0001) %MON g__extforcing_g_qnet_max     =   0.0000000000000E+00
(PID.TID 0000.0001) %MON g__extforcing_g_qnet_min     =   0.0000000000000E+00
(PID.TID 0000.0001) %MON g__extforcing_g_qnet_mean    =   0.0000000000000E+00
(PID.TID 0000.0001) %MON g__extforcing_g_qnet_sd      =   0.0000000000000E+00
(PID.TID 0000.0001) %MON g__extforcing_g_qnet_del2    =   0.0000000000000E+00
(PID.TID 0000.0001) %MON g__extforcing_g_empmr_max    =   0.0000000000000E+00
(PID.TID 0000.0001) %MON g__extforcing_g_empmr_min    =   0.0000000000000E+00
(PID.TID 0000.0001) %MON g__extforcing_g_empmr_mean   =   0.0000000000000E+00
(PID.TID 0000.0001) %MON g__extforcing_g_empmr_sd     =   0.0000000000000E+00
(PID.TID 0000.0001) %MON g__extforcing_g_empmr_del2   =   0.0000000000000E+00
(PID.TID 0000.0001) %MON g__extforcing_g_fu_max       =   0.0000000000000E+00
(PID.TID 0000.0001) %MON g__extforcing_g_fu_min       =   0.0000000000000E+00
(PID.TID 0000.0001) %MON g__extforcing_g_fu_mean      =   0.0000000000000E+00
(PID.TID 0000.0001) %MON g__extforcing_g_fu_sd        =   0.0000000000000E+00
(PID.TID 0000.0001) %MON g__extforcing_g_fu_del2      =   0.0000000000000E+00
(PID.TID 0000.0001) %MON g__extforcing_g_fv_max       =   0.0000000000000E+00
(PID.TID 0000.0001) %MON g__extforcing_g_fv_min       =   0.0000000000000E+00
(PID.TID 0000.0001) %MON g__extforcing_g_fv_mean      =   0.0000000000000E+00
(PID.TID 0000.0001) %MON g__extforcing_g_fv_sd        =   0.0000000000000E+00
(PID.TID 0000.0001) %MON g__extforcing_g_fv_del2      =   0.0000000000000E+00
(PID.TID 0000.0001) %MON g__g_vcfl_g_uvel_max         =   0.0000000000000E+00
(PID.TID 0000.0001) %MON g__g_vcfl_g_vvel_max         =   0.0000000000000E+00
(PID.TID 0000.0001) %MON g__g_vcfl_g_wvel_max         =   0.0000000000000E+00
(PID.TID 0000.0001) %MON g__g_vcfl_g_W_hf_max         =   0.0000000000000E+00
(PID.TID 0000.0001) // =======================================================
(PID.TID 0000.0001) // End MONITOR dynamic field statistics
(PID.TID 0000.0001) // =======================================================
 cg2d: Sum(rhs),rhsMax =   0.00000000000000E+00  0.00000000000000E+00
 cg2d: Sum(rhs),rhsMax =  -7.06018576934753E-13  9.70409645617043E+00
(PID.TID 0000.0001) // =======================================================
(PID.TID 0000.0001) // Begin MONITOR dynamic field statistics
(PID.TID 0000.0001) // =======================================================
(PID.TID 0000.0001) %MON g__time_tsnumber             =                    19
(PID.TID 0000.0001) %MON g__time_secondsf             =   8.2080000000000E+05
(PID.TID 0000.0001) %MON g__dynstat_g_eta_max         =   0.0000000000000E+00
(PID.TID 0000.0001) %MON g__dynstat_g_eta_min         =   0.0000000000000E+00
(PID.TID 0000.0001) %MON g__dynstat_g_eta_mean        =   0.0000000000000E+00
(PID.TID 0000.0001) %MON g__dynstat_g_eta_sd          =   0.0000000000000E+00
(PID.TID 0000.0001) %MON g__dynstat_g_eta_del2        =   0.0000000000000E+00
(PID.TID 0000.0001) %MON g__dynstat_g_uvel_max        =   0.0000000000000E+00
(PID.TID 0000.0001) %MON g__dynstat_g_uvel_min        =   0.0000000000000E+00
(PID.TID 0000.0001) %MON g__dynstat_g_uvel_mean       =   0.0000000000000E+00
(PID.TID 0000.0001) %MON g__dynstat_g_uvel_sd         =   0.0000000000000E+00
(PID.TID 0000.0001) %MON g__dynstat_g_uvel_del2       =   0.0000000000000E+00
(PID.TID 0000.0001) %MON g__dynstat_g_vvel_max        =   0.0000000000000E+00
(PID.TID 0000.0001) %MON g__dynstat_g_vvel_min        =   0.0000000000000E+00
(PID.TID 0000.0001) %MON g__dynstat_g_vvel_mean       =   0.0000000000000E+00
(PID.TID 0000.0001) %MON g__dynstat_g_vvel_sd         =   0.0000000000000E+00
(PID.TID 0000.0001) %MON g__dynstat_g_vvel_del2       =   0.0000000000000E+00
(PID.TID 0000.0001) %MON g__dynstat_g_wvel_max        =   0.0000000000000E+00
(PID.TID 0000.0001) %MON g__dynstat_g_wvel_min        =   0.0000000000000E+00
(PID.TID 0000.0001) %MON g__dynstat_g_wvel_mean       =   0.0000000000000E+00
(PID.TID 0000.0001) %MON g__dynstat_g_wvel_sd         =   0.0000000000000E+00
(PID.TID 0000.0001) %MON g__dynstat_g_wvel_del2       =   0.0000000000000E+00
(PID.TID 0000.0001) %MON g__dynstat_g_theta_max       =   0.0000000000000E+00
(PID.TID 0000.0001) %MON g__dynstat_g_theta_min       =   0.0000000000000E+00
(PID.TID 0000.0001) %MON g__dynstat_g_theta_mean      =   0.0000000000000E+00
(PID.TID 0000.0001) %MON g__dynstat_g_theta_sd        =   0.0000000000000E+00
(PID.TID 0000.0001) %MON g__dynstat_g_theta_del2      =   0.0000000000000E+00
(PID.TID 0000.0001) %MON g__dynstat_g_salt_max        =   0.0000000000000E+00
(PID.TID 0000.0001) %MON g__dynstat_g_salt_min        =   0.0000000000000E+00
(PID.TID 0000.0001) %MON g__dynstat_g_salt_mean       =   0.0000000000000E+00
(PID.TID 0000.0001) %MON g__dynstat_g_salt_sd         =   0.0000000000000E+00
(PID.TID 0000.0001) %MON g__dynstat_g_salt_del2       =   0.0000000000000E+00
(PID.TID 0000.0001) %MON g__dynstat_g_sst_max         =   0.0000000000000E+00
(PID.TID 0000.0001) %MON g__dynstat_g_sst_min         =   0.0000000000000E+00
(PID.TID 0000.0001) %MON g__dynstat_g_sst_mean        =   0.0000000000000E+00
(PID.TID 0000.0001) %MON g__dynstat_g_sst_sd          =   0.0000000000000E+00
(PID.TID 0000.0001) %MON g__dynstat_g_sst_del2        =   0.0000000000000E+00
(PID.TID 0000.0001) %MON g__dynstat_g_sss_max         =   0.0000000000000E+00
(PID.TID 0000.0001) %MON g__dynstat_g_sss_min         =   0.0000000000000E+00
(PID.TID 0000.0001) %MON g__dynstat_g_sss_mean        =   0.0000000000000E+00
(PID.TID 0000.0001) %MON g__dynstat_g_sss_sd          =   0.0000000000000E+00
(PID.TID 0000.0001) %MON g__dynstat_g_sss_del2        =   0.0000000000000E+00
(PID.TID 0000.0001) %MON g__extforcing_g_qnet_max     =   0.0000000000000E+00
(PID.TID 0000.0001) %MON g__extforcing_g_qnet_min     =   0.0000000000000E+00
(PID.TID 0000.0001) %MON g__extforcing_g_qnet_mean    =   0.0000000000000E+00
(PID.TID 0000.0001) %MON g__extforcing_g_qnet_sd      =   0.0000000000000E+00
(PID.TID 0000.0001) %MON g__extforcing_g_qnet_del2    =   0.0000000000000E+00
(PID.TID 0000.0001) %MON g__extforcing_g_empmr_max    =   0.0000000000000E+00
(PID.TID 0000.0001) %MON g__extforcing_g_empmr_min    =   0.0000000000000E+00
(PID.TID 0000.0001) %MON g__extforcing_g_empmr_mean   =   0.0000000000000E+00
(PID.TID 0000.0001) %MON g__extforcing_g_empmr_sd     =   0.0000000000000E+00
(PID.TID 0000.0001) %MON g__extforcing_g_empmr_del2   =   0.0000000000000E+00
(PID.TID 0000.0001) %MON g__extforcing_g_fu_max       =   0.0000000000000E+00
(PID.TID 0000.0001) %MON g__extforcing_g_fu_min       =   0.0000000000000E+00
(PID.TID 0000.0001) %MON g__extforcing_g_fu_mean      =   0.0000000000000E+00
(PID.TID 0000.0001) %MON g__extforcing_g_fu_sd        =   0.0000000000000E+00
(PID.TID 0000.0001) %MON g__extforcing_g_fu_del2      =   0.0000000000000E+00
(PID.TID 0000.0001) %MON g__extforcing_g_fv_max       =   0.0000000000000E+00
(PID.TID 0000.0001) %MON g__extforcing_g_fv_min       =   0.0000000000000E+00
(PID.TID 0000.0001) %MON g__extforcing_g_fv_mean      =   0.0000000000000E+00
(PID.TID 0000.0001) %MON g__extforcing_g_fv_sd        =   0.0000000000000E+00
(PID.TID 0000.0001) %MON g__extforcing_g_fv_del2      =   0.0000000000000E+00
(PID.TID 0000.0001) %MON g__g_vcfl_g_uvel_max         =   0.0000000000000E+00
(PID.TID 0000.0001) %MON g__g_vcfl_g_vvel_max         =   0.0000000000000E+00
(PID.TID 0000.0001) %MON g__g_vcfl_g_wvel_max         =   0.0000000000000E+00
(PID.TID 0000.0001) %MON g__g_vcfl_g_W_hf_max         =   0.0000000000000E+00
(PID.TID 0000.0001) // =======================================================
(PID.TID 0000.0001) // End MONITOR dynamic field statistics
(PID.TID 0000.0001) // =======================================================
 cg2d: Sum(rhs),rhsMax =   0.00000000000000E+00  0.00000000000000E+00
 cg2d: Sum(rhs),rhsMax =  -1.26008925516174E-12  9.47667283578001E+00
(PID.TID 0000.0001) // =======================================================
(PID.TID 0000.0001) // Begin MONITOR dynamic field statistics
(PID.TID 0000.0001) // =======================================================
(PID.TID 0000.0001) %MON g__time_tsnumber             =                    20
(PID.TID 0000.0001) %MON g__time_secondsf             =   8.6400000000000E+05
(PID.TID 0000.0001) %MON g__dynstat_g_eta_max         =   0.0000000000000E+00
(PID.TID 0000.0001) %MON g__dynstat_g_eta_min         =   0.0000000000000E+00
(PID.TID 0000.0001) %MON g__dynstat_g_eta_mean        =   0.0000000000000E+00
(PID.TID 0000.0001) %MON g__dynstat_g_eta_sd          =   0.0000000000000E+00
(PID.TID 0000.0001) %MON g__dynstat_g_eta_del2        =   0.0000000000000E+00
(PID.TID 0000.0001) %MON g__dynstat_g_uvel_max        =   0.0000000000000E+00
(PID.TID 0000.0001) %MON g__dynstat_g_uvel_min        =   0.0000000000000E+00
(PID.TID 0000.0001) %MON g__dynstat_g_uvel_mean       =   0.0000000000000E+00
(PID.TID 0000.0001) %MON g__dynstat_g_uvel_sd         =   0.0000000000000E+00
(PID.TID 0000.0001) %MON g__dynstat_g_uvel_del2       =   0.0000000000000E+00
(PID.TID 0000.0001) %MON g__dynstat_g_vvel_max        =   0.0000000000000E+00
(PID.TID 0000.0001) %MON g__dynstat_g_vvel_min        =   0.0000000000000E+00
(PID.TID 0000.0001) %MON g__dynstat_g_vvel_mean       =   0.0000000000000E+00
(PID.TID 0000.0001) %MON g__dynstat_g_vvel_sd         =   0.0000000000000E+00
(PID.TID 0000.0001) %MON g__dynstat_g_vvel_del2       =   0.0000000000000E+00
(PID.TID 0000.0001) %MON g__dynstat_g_wvel_max        =   0.0000000000000E+00
(PID.TID 0000.0001) %MON g__dynstat_g_wvel_min        =   0.0000000000000E+00
(PID.TID 0000.0001) %MON g__dynstat_g_wvel_mean       =   0.0000000000000E+00
(PID.TID 0000.0001) %MON g__dynstat_g_wvel_sd         =   0.0000000000000E+00
(PID.TID 0000.0001) %MON g__dynstat_g_wvel_del2       =   0.0000000000000E+00
(PID.TID 0000.0001) %MON g__dynstat_g_theta_max       =   0.0000000000000E+00
(PID.TID 0000.0001) %MON g__dynstat_g_theta_min       =   0.0000000000000E+00
(PID.TID 0000.0001) %MON g__dynstat_g_theta_mean      =   0.0000000000000E+00
(PID.TID 0000.0001) %MON g__dynstat_g_theta_sd        =   0.0000000000000E+00
(PID.TID 0000.0001) %MON g__dynstat_g_theta_del2      =   0.0000000000000E+00
(PID.TID 0000.0001) %MON g__dynstat_g_salt_max        =   0.0000000000000E+00
(PID.TID 0000.0001) %MON g__dynstat_g_salt_min        =   0.0000000000000E+00
(PID.TID 0000.0001) %MON g__dynstat_g_salt_mean       =   0.0000000000000E+00
(PID.TID 0000.0001) %MON g__dynstat_g_salt_sd         =   0.0000000000000E+00
(PID.TID 0000.0001) %MON g__dynstat_g_salt_del2       =   0.0000000000000E+00
(PID.TID 0000.0001) %MON g__dynstat_g_sst_max         =   0.0000000000000E+00
(PID.TID 0000.0001) %MON g__dynstat_g_sst_min         =   0.0000000000000E+00
(PID.TID 0000.0001) %MON g__dynstat_g_sst_mean        =   0.0000000000000E+00
(PID.TID 0000.0001) %MON g__dynstat_g_sst_sd          =   0.0000000000000E+00
(PID.TID 0000.0001) %MON g__dynstat_g_sst_del2        =   0.0000000000000E+00
(PID.TID 0000.0001) %MON g__dynstat_g_sss_max         =   0.0000000000000E+00
(PID.TID 0000.0001) %MON g__dynstat_g_sss_min         =   0.0000000000000E+00
(PID.TID 0000.0001) %MON g__dynstat_g_sss_mean        =   0.0000000000000E+00
(PID.TID 0000.0001) %MON g__dynstat_g_sss_sd          =   0.0000000000000E+00
(PID.TID 0000.0001) %MON g__dynstat_g_sss_del2        =   0.0000000000000E+00
(PID.TID 0000.0001) %MON g__extforcing_g_qnet_max     =   0.0000000000000E+00
(PID.TID 0000.0001) %MON g__extforcing_g_qnet_min     =   0.0000000000000E+00
(PID.TID 0000.0001) %MON g__extforcing_g_qnet_mean    =   0.0000000000000E+00
(PID.TID 0000.0001) %MON g__extforcing_g_qnet_sd      =   0.0000000000000E+00
(PID.TID 0000.0001) %MON g__extforcing_g_qnet_del2    =   0.0000000000000E+00
(PID.TID 0000.0001) %MON g__extforcing_g_empmr_max    =   0.0000000000000E+00
(PID.TID 0000.0001) %MON g__extforcing_g_empmr_min    =   0.0000000000000E+00
(PID.TID 0000.0001) %MON g__extforcing_g_empmr_mean   =   0.0000000000000E+00
(PID.TID 0000.0001) %MON g__extforcing_g_empmr_sd     =   0.0000000000000E+00
(PID.TID 0000.0001) %MON g__extforcing_g_empmr_del2   =   0.0000000000000E+00
(PID.TID 0000.0001) %MON g__extforcing_g_fu_max       =   0.0000000000000E+00
(PID.TID 0000.0001) %MON g__extforcing_g_fu_min       =   0.0000000000000E+00
(PID.TID 0000.0001) %MON g__extforcing_g_fu_mean      =   0.0000000000000E+00
(PID.TID 0000.0001) %MON g__extforcing_g_fu_sd        =   0.0000000000000E+00
(PID.TID 0000.0001) %MON g__extforcing_g_fu_del2      =   0.0000000000000E+00
(PID.TID 0000.0001) %MON g__extforcing_g_fv_max       =   0.0000000000000E+00
(PID.TID 0000.0001) %MON g__extforcing_g_fv_min       =   0.0000000000000E+00
(PID.TID 0000.0001) %MON g__extforcing_g_fv_mean      =   0.0000000000000E+00
(PID.TID 0000.0001) %MON g__extforcing_g_fv_sd        =   0.0000000000000E+00
(PID.TID 0000.0001) %MON g__extforcing_g_fv_del2      =   0.0000000000000E+00
(PID.TID 0000.0001) %MON g__g_vcfl_g_uvel_max         =   0.0000000000000E+00
(PID.TID 0000.0001) %MON g__g_vcfl_g_vvel_max         =   0.0000000000000E+00
(PID.TID 0000.0001) %MON g__g_vcfl_g_wvel_max         =   0.0000000000000E+00
(PID.TID 0000.0001) %MON g__g_vcfl_g_W_hf_max         =   0.0000000000000E+00
(PID.TID 0000.0001) // =======================================================
(PID.TID 0000.0001) // End MONITOR dynamic field statistics
(PID.TID 0000.0001) // =======================================================
 myIter=  20
(PID.TID 0000.0001) // Model state written, timestep        20
(PID.TID 0000.0001) 
 cg2d: Sum(rhs),rhsMax =   0.00000000000000E+00  0.00000000000000E+00
 cg2d: Sum(rhs),rhsMax =  -1.23858562295354E-12  1.03748401635909E+01
(PID.TID 0000.0001) // =======================================================
(PID.TID 0000.0001) // Begin MONITOR dynamic field statistics
(PID.TID 0000.0001) // =======================================================
(PID.TID 0000.0001) %MON g__time_tsnumber             =                    21
(PID.TID 0000.0001) %MON g__time_secondsf             =   9.0720000000000E+05
(PID.TID 0000.0001) %MON g__dynstat_g_eta_max         =   0.0000000000000E+00
(PID.TID 0000.0001) %MON g__dynstat_g_eta_min         =   0.0000000000000E+00
(PID.TID 0000.0001) %MON g__dynstat_g_eta_mean        =   0.0000000000000E+00
(PID.TID 0000.0001) %MON g__dynstat_g_eta_sd          =   0.0000000000000E+00
(PID.TID 0000.0001) %MON g__dynstat_g_eta_del2        =   0.0000000000000E+00
(PID.TID 0000.0001) %MON g__dynstat_g_uvel_max        =   0.0000000000000E+00
(PID.TID 0000.0001) %MON g__dynstat_g_uvel_min        =   0.0000000000000E+00
(PID.TID 0000.0001) %MON g__dynstat_g_uvel_mean       =   0.0000000000000E+00
(PID.TID 0000.0001) %MON g__dynstat_g_uvel_sd         =   0.0000000000000E+00
(PID.TID 0000.0001) %MON g__dynstat_g_uvel_del2       =   0.0000000000000E+00
(PID.TID 0000.0001) %MON g__dynstat_g_vvel_max        =   0.0000000000000E+00
(PID.TID 0000.0001) %MON g__dynstat_g_vvel_min        =   0.0000000000000E+00
(PID.TID 0000.0001) %MON g__dynstat_g_vvel_mean       =   0.0000000000000E+00
(PID.TID 0000.0001) %MON g__dynstat_g_vvel_sd         =   0.0000000000000E+00
(PID.TID 0000.0001) %MON g__dynstat_g_vvel_del2       =   0.0000000000000E+00
(PID.TID 0000.0001) %MON g__dynstat_g_wvel_max        =   0.0000000000000E+00
(PID.TID 0000.0001) %MON g__dynstat_g_wvel_min        =   0.0000000000000E+00
(PID.TID 0000.0001) %MON g__dynstat_g_wvel_mean       =   0.0000000000000E+00
(PID.TID 0000.0001) %MON g__dynstat_g_wvel_sd         =   0.0000000000000E+00
(PID.TID 0000.0001) %MON g__dynstat_g_wvel_del2       =   0.0000000000000E+00
(PID.TID 0000.0001) %MON g__dynstat_g_theta_max       =   0.0000000000000E+00
(PID.TID 0000.0001) %MON g__dynstat_g_theta_min       =   0.0000000000000E+00
(PID.TID 0000.0001) %MON g__dynstat_g_theta_mean      =   0.0000000000000E+00
(PID.TID 0000.0001) %MON g__dynstat_g_theta_sd        =   0.0000000000000E+00
(PID.TID 0000.0001) %MON g__dynstat_g_theta_del2      =   0.0000000000000E+00
(PID.TID 0000.0001) %MON g__dynstat_g_salt_max        =   0.0000000000000E+00
(PID.TID 0000.0001) %MON g__dynstat_g_salt_min        =   0.0000000000000E+00
(PID.TID 0000.0001) %MON g__dynstat_g_salt_mean       =   0.0000000000000E+00
(PID.TID 0000.0001) %MON g__dynstat_g_salt_sd         =   0.0000000000000E+00
(PID.TID 0000.0001) %MON g__dynstat_g_salt_del2       =   0.0000000000000E+00
(PID.TID 0000.0001) %MON g__dynstat_g_sst_max         =   0.0000000000000E+00
(PID.TID 0000.0001) %MON g__dynstat_g_sst_min         =   0.0000000000000E+00
(PID.TID 0000.0001) %MON g__dynstat_g_sst_mean        =   0.0000000000000E+00
(PID.TID 0000.0001) %MON g__dynstat_g_sst_sd          =   0.0000000000000E+00
(PID.TID 0000.0001) %MON g__dynstat_g_sst_del2        =   0.0000000000000E+00
(PID.TID 0000.0001) %MON g__dynstat_g_sss_max         =   0.0000000000000E+00
(PID.TID 0000.0001) %MON g__dynstat_g_sss_min         =   0.0000000000000E+00
(PID.TID 0000.0001) %MON g__dynstat_g_sss_mean        =   0.0000000000000E+00
(PID.TID 0000.0001) %MON g__dynstat_g_sss_sd          =   0.0000000000000E+00
(PID.TID 0000.0001) %MON g__dynstat_g_sss_del2        =   0.0000000000000E+00
(PID.TID 0000.0001) %MON g__extforcing_g_qnet_max     =   0.0000000000000E+00
(PID.TID 0000.0001) %MON g__extforcing_g_qnet_min     =   0.0000000000000E+00
(PID.TID 0000.0001) %MON g__extforcing_g_qnet_mean    =   0.0000000000000E+00
(PID.TID 0000.0001) %MON g__extforcing_g_qnet_sd      =   0.0000000000000E+00
(PID.TID 0000.0001) %MON g__extforcing_g_qnet_del2    =   0.0000000000000E+00
(PID.TID 0000.0001) %MON g__extforcing_g_empmr_max    =   0.0000000000000E+00
(PID.TID 0000.0001) %MON g__extforcing_g_empmr_min    =   0.0000000000000E+00
(PID.TID 0000.0001) %MON g__extforcing_g_empmr_mean   =   0.0000000000000E+00
(PID.TID 0000.0001) %MON g__extforcing_g_empmr_sd     =   0.0000000000000E+00
(PID.TID 0000.0001) %MON g__extforcing_g_empmr_del2   =   0.0000000000000E+00
(PID.TID 0000.0001) %MON g__extforcing_g_fu_max       =   0.0000000000000E+00
(PID.TID 0000.0001) %MON g__extforcing_g_fu_min       =   0.0000000000000E+00
(PID.TID 0000.0001) %MON g__extforcing_g_fu_mean      =   0.0000000000000E+00
(PID.TID 0000.0001) %MON g__extforcing_g_fu_sd        =   0.0000000000000E+00
(PID.TID 0000.0001) %MON g__extforcing_g_fu_del2      =   0.0000000000000E+00
(PID.TID 0000.0001) %MON g__extforcing_g_fv_max       =   0.0000000000000E+00
(PID.TID 0000.0001) %MON g__extforcing_g_fv_min       =   0.0000000000000E+00
(PID.TID 0000.0001) %MON g__extforcing_g_fv_mean      =   0.0000000000000E+00
(PID.TID 0000.0001) %MON g__extforcing_g_fv_sd        =   0.0000000000000E+00
(PID.TID 0000.0001) %MON g__extforcing_g_fv_del2      =   0.0000000000000E+00
(PID.TID 0000.0001) %MON g__g_vcfl_g_uvel_max         =   0.0000000000000E+00
(PID.TID 0000.0001) %MON g__g_vcfl_g_vvel_max         =   0.0000000000000E+00
(PID.TID 0000.0001) %MON g__g_vcfl_g_wvel_max         =   0.0000000000000E+00
(PID.TID 0000.0001) %MON g__g_vcfl_g_W_hf_max         =   0.0000000000000E+00
(PID.TID 0000.0001) // =======================================================
(PID.TID 0000.0001) // End MONITOR dynamic field statistics
(PID.TID 0000.0001) // =======================================================
 cg2d: Sum(rhs),rhsMax =   0.00000000000000E+00  0.00000000000000E+00
 cg2d: Sum(rhs),rhsMax =  -7.55159823562224E-13  1.11482726022290E+01
(PID.TID 0000.0001) // =======================================================
(PID.TID 0000.0001) // Begin MONITOR dynamic field statistics
(PID.TID 0000.0001) // =======================================================
(PID.TID 0000.0001) %MON g__time_tsnumber             =                    22
(PID.TID 0000.0001) %MON g__time_secondsf             =   9.5040000000000E+05
(PID.TID 0000.0001) %MON g__dynstat_g_eta_max         =   0.0000000000000E+00
(PID.TID 0000.0001) %MON g__dynstat_g_eta_min         =   0.0000000000000E+00
(PID.TID 0000.0001) %MON g__dynstat_g_eta_mean        =   0.0000000000000E+00
(PID.TID 0000.0001) %MON g__dynstat_g_eta_sd          =   0.0000000000000E+00
(PID.TID 0000.0001) %MON g__dynstat_g_eta_del2        =   0.0000000000000E+00
(PID.TID 0000.0001) %MON g__dynstat_g_uvel_max        =   0.0000000000000E+00
(PID.TID 0000.0001) %MON g__dynstat_g_uvel_min        =   0.0000000000000E+00
(PID.TID 0000.0001) %MON g__dynstat_g_uvel_mean       =   0.0000000000000E+00
(PID.TID 0000.0001) %MON g__dynstat_g_uvel_sd         =   0.0000000000000E+00
(PID.TID 0000.0001) %MON g__dynstat_g_uvel_del2       =   0.0000000000000E+00
(PID.TID 0000.0001) %MON g__dynstat_g_vvel_max        =   0.0000000000000E+00
(PID.TID 0000.0001) %MON g__dynstat_g_vvel_min        =   0.0000000000000E+00
(PID.TID 0000.0001) %MON g__dynstat_g_vvel_mean       =   0.0000000000000E+00
(PID.TID 0000.0001) %MON g__dynstat_g_vvel_sd         =   0.0000000000000E+00
(PID.TID 0000.0001) %MON g__dynstat_g_vvel_del2       =   0.0000000000000E+00
(PID.TID 0000.0001) %MON g__dynstat_g_wvel_max        =   0.0000000000000E+00
(PID.TID 0000.0001) %MON g__dynstat_g_wvel_min        =   0.0000000000000E+00
(PID.TID 0000.0001) %MON g__dynstat_g_wvel_mean       =   0.0000000000000E+00
(PID.TID 0000.0001) %MON g__dynstat_g_wvel_sd         =   0.0000000000000E+00
(PID.TID 0000.0001) %MON g__dynstat_g_wvel_del2       =   0.0000000000000E+00
(PID.TID 0000.0001) %MON g__dynstat_g_theta_max       =   0.0000000000000E+00
(PID.TID 0000.0001) %MON g__dynstat_g_theta_min       =   0.0000000000000E+00
(PID.TID 0000.0001) %MON g__dynstat_g_theta_mean      =   0.0000000000000E+00
(PID.TID 0000.0001) %MON g__dynstat_g_theta_sd        =   0.0000000000000E+00
(PID.TID 0000.0001) %MON g__dynstat_g_theta_del2      =   0.0000000000000E+00
(PID.TID 0000.0001) %MON g__dynstat_g_salt_max        =   0.0000000000000E+00
(PID.TID 0000.0001) %MON g__dynstat_g_salt_min        =   0.0000000000000E+00
(PID.TID 0000.0001) %MON g__dynstat_g_salt_mean       =   0.0000000000000E+00
(PID.TID 0000.0001) %MON g__dynstat_g_salt_sd         =   0.0000000000000E+00
(PID.TID 0000.0001) %MON g__dynstat_g_salt_del2       =   0.0000000000000E+00
(PID.TID 0000.0001) %MON g__dynstat_g_sst_max         =   0.0000000000000E+00
(PID.TID 0000.0001) %MON g__dynstat_g_sst_min         =   0.0000000000000E+00
(PID.TID 0000.0001) %MON g__dynstat_g_sst_mean        =   0.0000000000000E+00
(PID.TID 0000.0001) %MON g__dynstat_g_sst_sd          =   0.0000000000000E+00
(PID.TID 0000.0001) %MON g__dynstat_g_sst_del2        =   0.0000000000000E+00
(PID.TID 0000.0001) %MON g__dynstat_g_sss_max         =   0.0000000000000E+00
(PID.TID 0000.0001) %MON g__dynstat_g_sss_min         =   0.0000000000000E+00
(PID.TID 0000.0001) %MON g__dynstat_g_sss_mean        =   0.0000000000000E+00
(PID.TID 0000.0001) %MON g__dynstat_g_sss_sd          =   0.0000000000000E+00
(PID.TID 0000.0001) %MON g__dynstat_g_sss_del2        =   0.0000000000000E+00
(PID.TID 0000.0001) %MON g__extforcing_g_qnet_max     =   0.0000000000000E+00
(PID.TID 0000.0001) %MON g__extforcing_g_qnet_min     =   0.0000000000000E+00
(PID.TID 0000.0001) %MON g__extforcing_g_qnet_mean    =   0.0000000000000E+00
(PID.TID 0000.0001) %MON g__extforcing_g_qnet_sd      =   0.0000000000000E+00
(PID.TID 0000.0001) %MON g__extforcing_g_qnet_del2    =   0.0000000000000E+00
(PID.TID 0000.0001) %MON g__extforcing_g_empmr_max    =   0.0000000000000E+00
(PID.TID 0000.0001) %MON g__extforcing_g_empmr_min    =   0.0000000000000E+00
(PID.TID 0000.0001) %MON g__extforcing_g_empmr_mean   =   0.0000000000000E+00
(PID.TID 0000.0001) %MON g__extforcing_g_empmr_sd     =   0.0000000000000E+00
(PID.TID 0000.0001) %MON g__extforcing_g_empmr_del2   =   0.0000000000000E+00
(PID.TID 0000.0001) %MON g__extforcing_g_fu_max       =   0.0000000000000E+00
(PID.TID 0000.0001) %MON g__extforcing_g_fu_min       =   0.0000000000000E+00
(PID.TID 0000.0001) %MON g__extforcing_g_fu_mean      =   0.0000000000000E+00
(PID.TID 0000.0001) %MON g__extforcing_g_fu_sd        =   0.0000000000000E+00
(PID.TID 0000.0001) %MON g__extforcing_g_fu_del2      =   0.0000000000000E+00
(PID.TID 0000.0001) %MON g__extforcing_g_fv_max       =   0.0000000000000E+00
(PID.TID 0000.0001) %MON g__extforcing_g_fv_min       =   0.0000000000000E+00
(PID.TID 0000.0001) %MON g__extforcing_g_fv_mean      =   0.0000000000000E+00
(PID.TID 0000.0001) %MON g__extforcing_g_fv_sd        =   0.0000000000000E+00
(PID.TID 0000.0001) %MON g__extforcing_g_fv_del2      =   0.0000000000000E+00
(PID.TID 0000.0001) %MON g__g_vcfl_g_uvel_max         =   0.0000000000000E+00
(PID.TID 0000.0001) %MON g__g_vcfl_g_vvel_max         =   0.0000000000000E+00
(PID.TID 0000.0001) %MON g__g_vcfl_g_wvel_max         =   0.0000000000000E+00
(PID.TID 0000.0001) %MON g__g_vcfl_g_W_hf_max         =   0.0000000000000E+00
(PID.TID 0000.0001) // =======================================================
(PID.TID 0000.0001) // End MONITOR dynamic field statistics
(PID.TID 0000.0001) // =======================================================
 cg2d: Sum(rhs),rhsMax =   0.00000000000000E+00  0.00000000000000E+00
 cg2d: Sum(rhs),rhsMax =  -9.23166057487101E-13  1.17644190526986E+01
(PID.TID 0000.0001) // =======================================================
(PID.TID 0000.0001) // Begin MONITOR dynamic field statistics
(PID.TID 0000.0001) // =======================================================
(PID.TID 0000.0001) %MON g__time_tsnumber             =                    23
(PID.TID 0000.0001) %MON g__time_secondsf             =   9.9360000000000E+05
(PID.TID 0000.0001) %MON g__dynstat_g_eta_max         =   0.0000000000000E+00
(PID.TID 0000.0001) %MON g__dynstat_g_eta_min         =   0.0000000000000E+00
(PID.TID 0000.0001) %MON g__dynstat_g_eta_mean        =   0.0000000000000E+00
(PID.TID 0000.0001) %MON g__dynstat_g_eta_sd          =   0.0000000000000E+00
(PID.TID 0000.0001) %MON g__dynstat_g_eta_del2        =   0.0000000000000E+00
(PID.TID 0000.0001) %MON g__dynstat_g_uvel_max        =   0.0000000000000E+00
(PID.TID 0000.0001) %MON g__dynstat_g_uvel_min        =   0.0000000000000E+00
(PID.TID 0000.0001) %MON g__dynstat_g_uvel_mean       =   0.0000000000000E+00
(PID.TID 0000.0001) %MON g__dynstat_g_uvel_sd         =   0.0000000000000E+00
(PID.TID 0000.0001) %MON g__dynstat_g_uvel_del2       =   0.0000000000000E+00
(PID.TID 0000.0001) %MON g__dynstat_g_vvel_max        =   0.0000000000000E+00
(PID.TID 0000.0001) %MON g__dynstat_g_vvel_min        =   0.0000000000000E+00
(PID.TID 0000.0001) %MON g__dynstat_g_vvel_mean       =   0.0000000000000E+00
(PID.TID 0000.0001) %MON g__dynstat_g_vvel_sd         =   0.0000000000000E+00
(PID.TID 0000.0001) %MON g__dynstat_g_vvel_del2       =   0.0000000000000E+00
(PID.TID 0000.0001) %MON g__dynstat_g_wvel_max        =   0.0000000000000E+00
(PID.TID 0000.0001) %MON g__dynstat_g_wvel_min        =   0.0000000000000E+00
(PID.TID 0000.0001) %MON g__dynstat_g_wvel_mean       =   0.0000000000000E+00
(PID.TID 0000.0001) %MON g__dynstat_g_wvel_sd         =   0.0000000000000E+00
(PID.TID 0000.0001) %MON g__dynstat_g_wvel_del2       =   0.0000000000000E+00
(PID.TID 0000.0001) %MON g__dynstat_g_theta_max       =   0.0000000000000E+00
(PID.TID 0000.0001) %MON g__dynstat_g_theta_min       =   0.0000000000000E+00
(PID.TID 0000.0001) %MON g__dynstat_g_theta_mean      =   0.0000000000000E+00
(PID.TID 0000.0001) %MON g__dynstat_g_theta_sd        =   0.0000000000000E+00
(PID.TID 0000.0001) %MON g__dynstat_g_theta_del2      =   0.0000000000000E+00
(PID.TID 0000.0001) %MON g__dynstat_g_salt_max        =   0.0000000000000E+00
(PID.TID 0000.0001) %MON g__dynstat_g_salt_min        =   0.0000000000000E+00
(PID.TID 0000.0001) %MON g__dynstat_g_salt_mean       =   0.0000000000000E+00
(PID.TID 0000.0001) %MON g__dynstat_g_salt_sd         =   0.0000000000000E+00
(PID.TID 0000.0001) %MON g__dynstat_g_salt_del2       =   0.0000000000000E+00
(PID.TID 0000.0001) %MON g__dynstat_g_sst_max         =   0.0000000000000E+00
(PID.TID 0000.0001) %MON g__dynstat_g_sst_min         =   0.0000000000000E+00
(PID.TID 0000.0001) %MON g__dynstat_g_sst_mean        =   0.0000000000000E+00
(PID.TID 0000.0001) %MON g__dynstat_g_sst_sd          =   0.0000000000000E+00
(PID.TID 0000.0001) %MON g__dynstat_g_sst_del2        =   0.0000000000000E+00
(PID.TID 0000.0001) %MON g__dynstat_g_sss_max         =   0.0000000000000E+00
(PID.TID 0000.0001) %MON g__dynstat_g_sss_min         =   0.0000000000000E+00
(PID.TID 0000.0001) %MON g__dynstat_g_sss_mean        =   0.0000000000000E+00
(PID.TID 0000.0001) %MON g__dynstat_g_sss_sd          =   0.0000000000000E+00
(PID.TID 0000.0001) %MON g__dynstat_g_sss_del2        =   0.0000000000000E+00
(PID.TID 0000.0001) %MON g__extforcing_g_qnet_max     =   0.0000000000000E+00
(PID.TID 0000.0001) %MON g__extforcing_g_qnet_min     =   0.0000000000000E+00
(PID.TID 0000.0001) %MON g__extforcing_g_qnet_mean    =   0.0000000000000E+00
(PID.TID 0000.0001) %MON g__extforcing_g_qnet_sd      =   0.0000000000000E+00
(PID.TID 0000.0001) %MON g__extforcing_g_qnet_del2    =   0.0000000000000E+00
(PID.TID 0000.0001) %MON g__extforcing_g_empmr_max    =   0.0000000000000E+00
(PID.TID 0000.0001) %MON g__extforcing_g_empmr_min    =   0.0000000000000E+00
(PID.TID 0000.0001) %MON g__extforcing_g_empmr_mean   =   0.0000000000000E+00
(PID.TID 0000.0001) %MON g__extforcing_g_empmr_sd     =   0.0000000000000E+00
(PID.TID 0000.0001) %MON g__extforcing_g_empmr_del2   =   0.0000000000000E+00
(PID.TID 0000.0001) %MON g__extforcing_g_fu_max       =   0.0000000000000E+00
(PID.TID 0000.0001) %MON g__extforcing_g_fu_min       =   0.0000000000000E+00
(PID.TID 0000.0001) %MON g__extforcing_g_fu_mean      =   0.0000000000000E+00
(PID.TID 0000.0001) %MON g__extforcing_g_fu_sd        =   0.0000000000000E+00
(PID.TID 0000.0001) %MON g__extforcing_g_fu_del2      =   0.0000000000000E+00
(PID.TID 0000.0001) %MON g__extforcing_g_fv_max       =   0.0000000000000E+00
(PID.TID 0000.0001) %MON g__extforcing_g_fv_min       =   0.0000000000000E+00
(PID.TID 0000.0001) %MON g__extforcing_g_fv_mean      =   0.0000000000000E+00
(PID.TID 0000.0001) %MON g__extforcing_g_fv_sd        =   0.0000000000000E+00
(PID.TID 0000.0001) %MON g__extforcing_g_fv_del2      =   0.0000000000000E+00
(PID.TID 0000.0001) %MON g__g_vcfl_g_uvel_max         =   0.0000000000000E+00
(PID.TID 0000.0001) %MON g__g_vcfl_g_vvel_max         =   0.0000000000000E+00
(PID.TID 0000.0001) %MON g__g_vcfl_g_wvel_max         =   0.0000000000000E+00
(PID.TID 0000.0001) %MON g__g_vcfl_g_W_hf_max         =   0.0000000000000E+00
(PID.TID 0000.0001) // =======================================================
(PID.TID 0000.0001) // End MONITOR dynamic field statistics
(PID.TID 0000.0001) // =======================================================
 cg2d: Sum(rhs),rhsMax =   0.00000000000000E+00  0.00000000000000E+00
 cg2d: Sum(rhs),rhsMax =  -9.18279341455275E-13  1.21959720875421E+01
(PID.TID 0000.0001) // =======================================================
(PID.TID 0000.0001) // Begin MONITOR dynamic field statistics
(PID.TID 0000.0001) // =======================================================
(PID.TID 0000.0001) %MON g__time_tsnumber             =                    24
(PID.TID 0000.0001) %MON g__time_secondsf             =   1.0368000000000E+06
(PID.TID 0000.0001) %MON g__dynstat_g_eta_max         =   0.0000000000000E+00
(PID.TID 0000.0001) %MON g__dynstat_g_eta_min         =   0.0000000000000E+00
(PID.TID 0000.0001) %MON g__dynstat_g_eta_mean        =   0.0000000000000E+00
(PID.TID 0000.0001) %MON g__dynstat_g_eta_sd          =   0.0000000000000E+00
(PID.TID 0000.0001) %MON g__dynstat_g_eta_del2        =   0.0000000000000E+00
(PID.TID 0000.0001) %MON g__dynstat_g_uvel_max        =   0.0000000000000E+00
(PID.TID 0000.0001) %MON g__dynstat_g_uvel_min        =   0.0000000000000E+00
(PID.TID 0000.0001) %MON g__dynstat_g_uvel_mean       =   0.0000000000000E+00
(PID.TID 0000.0001) %MON g__dynstat_g_uvel_sd         =   0.0000000000000E+00
(PID.TID 0000.0001) %MON g__dynstat_g_uvel_del2       =   0.0000000000000E+00
(PID.TID 0000.0001) %MON g__dynstat_g_vvel_max        =   0.0000000000000E+00
(PID.TID 0000.0001) %MON g__dynstat_g_vvel_min        =   0.0000000000000E+00
(PID.TID 0000.0001) %MON g__dynstat_g_vvel_mean       =   0.0000000000000E+00
(PID.TID 0000.0001) %MON g__dynstat_g_vvel_sd         =   0.0000000000000E+00
(PID.TID 0000.0001) %MON g__dynstat_g_vvel_del2       =   0.0000000000000E+00
(PID.TID 0000.0001) %MON g__dynstat_g_wvel_max        =   0.0000000000000E+00
(PID.TID 0000.0001) %MON g__dynstat_g_wvel_min        =   0.0000000000000E+00
(PID.TID 0000.0001) %MON g__dynstat_g_wvel_mean       =   0.0000000000000E+00
(PID.TID 0000.0001) %MON g__dynstat_g_wvel_sd         =   0.0000000000000E+00
(PID.TID 0000.0001) %MON g__dynstat_g_wvel_del2       =   0.0000000000000E+00
(PID.TID 0000.0001) %MON g__dynstat_g_theta_max       =   0.0000000000000E+00
(PID.TID 0000.0001) %MON g__dynstat_g_theta_min       =   0.0000000000000E+00
(PID.TID 0000.0001) %MON g__dynstat_g_theta_mean      =   0.0000000000000E+00
(PID.TID 0000.0001) %MON g__dynstat_g_theta_sd        =   0.0000000000000E+00
(PID.TID 0000.0001) %MON g__dynstat_g_theta_del2      =   0.0000000000000E+00
(PID.TID 0000.0001) %MON g__dynstat_g_salt_max        =   0.0000000000000E+00
(PID.TID 0000.0001) %MON g__dynstat_g_salt_min        =   0.0000000000000E+00
(PID.TID 0000.0001) %MON g__dynstat_g_salt_mean       =   0.0000000000000E+00
(PID.TID 0000.0001) %MON g__dynstat_g_salt_sd         =   0.0000000000000E+00
(PID.TID 0000.0001) %MON g__dynstat_g_salt_del2       =   0.0000000000000E+00
(PID.TID 0000.0001) %MON g__dynstat_g_sst_max         =   0.0000000000000E+00
(PID.TID 0000.0001) %MON g__dynstat_g_sst_min         =   0.0000000000000E+00
(PID.TID 0000.0001) %MON g__dynstat_g_sst_mean        =   0.0000000000000E+00
(PID.TID 0000.0001) %MON g__dynstat_g_sst_sd          =   0.0000000000000E+00
(PID.TID 0000.0001) %MON g__dynstat_g_sst_del2        =   0.0000000000000E+00
(PID.TID 0000.0001) %MON g__dynstat_g_sss_max         =   0.0000000000000E+00
(PID.TID 0000.0001) %MON g__dynstat_g_sss_min         =   0.0000000000000E+00
(PID.TID 0000.0001) %MON g__dynstat_g_sss_mean        =   0.0000000000000E+00
(PID.TID 0000.0001) %MON g__dynstat_g_sss_sd          =   0.0000000000000E+00
(PID.TID 0000.0001) %MON g__dynstat_g_sss_del2        =   0.0000000000000E+00
(PID.TID 0000.0001) %MON g__extforcing_g_qnet_max     =   0.0000000000000E+00
(PID.TID 0000.0001) %MON g__extforcing_g_qnet_min     =   0.0000000000000E+00
(PID.TID 0000.0001) %MON g__extforcing_g_qnet_mean    =   0.0000000000000E+00
(PID.TID 0000.0001) %MON g__extforcing_g_qnet_sd      =   0.0000000000000E+00
(PID.TID 0000.0001) %MON g__extforcing_g_qnet_del2    =   0.0000000000000E+00
(PID.TID 0000.0001) %MON g__extforcing_g_empmr_max    =   0.0000000000000E+00
(PID.TID 0000.0001) %MON g__extforcing_g_empmr_min    =   0.0000000000000E+00
(PID.TID 0000.0001) %MON g__extforcing_g_empmr_mean   =   0.0000000000000E+00
(PID.TID 0000.0001) %MON g__extforcing_g_empmr_sd     =   0.0000000000000E+00
(PID.TID 0000.0001) %MON g__extforcing_g_empmr_del2   =   0.0000000000000E+00
(PID.TID 0000.0001) %MON g__extforcing_g_fu_max       =   0.0000000000000E+00
(PID.TID 0000.0001) %MON g__extforcing_g_fu_min       =   0.0000000000000E+00
(PID.TID 0000.0001) %MON g__extforcing_g_fu_mean      =   0.0000000000000E+00
(PID.TID 0000.0001) %MON g__extforcing_g_fu_sd        =   0.0000000000000E+00
(PID.TID 0000.0001) %MON g__extforcing_g_fu_del2      =   0.0000000000000E+00
(PID.TID 0000.0001) %MON g__extforcing_g_fv_max       =   0.0000000000000E+00
(PID.TID 0000.0001) %MON g__extforcing_g_fv_min       =   0.0000000000000E+00
(PID.TID 0000.0001) %MON g__extforcing_g_fv_mean      =   0.0000000000000E+00
(PID.TID 0000.0001) %MON g__extforcing_g_fv_sd        =   0.0000000000000E+00
(PID.TID 0000.0001) %MON g__extforcing_g_fv_del2      =   0.0000000000000E+00
(PID.TID 0000.0001) %MON g__g_vcfl_g_uvel_max         =   0.0000000000000E+00
(PID.TID 0000.0001) %MON g__g_vcfl_g_vvel_max         =   0.0000000000000E+00
(PID.TID 0000.0001) %MON g__g_vcfl_g_wvel_max         =   0.0000000000000E+00
(PID.TID 0000.0001) %MON g__g_vcfl_g_W_hf_max         =   0.0000000000000E+00
(PID.TID 0000.0001) // =======================================================
(PID.TID 0000.0001) // End MONITOR dynamic field statistics
(PID.TID 0000.0001) // =======================================================
 cg2d: Sum(rhs),rhsMax =   0.00000000000000E+00  0.00000000000000E+00
 cg2d: Sum(rhs),rhsMax =  -8.32391447436187E-13  1.24221987652398E+01
(PID.TID 0000.0001) // =======================================================
(PID.TID 0000.0001) // Begin MONITOR dynamic field statistics
(PID.TID 0000.0001) // =======================================================
(PID.TID 0000.0001) %MON g__time_tsnumber             =                    25
(PID.TID 0000.0001) %MON g__time_secondsf             =   1.0800000000000E+06
(PID.TID 0000.0001) %MON g__dynstat_g_eta_max         =   0.0000000000000E+00
(PID.TID 0000.0001) %MON g__dynstat_g_eta_min         =   0.0000000000000E+00
(PID.TID 0000.0001) %MON g__dynstat_g_eta_mean        =   0.0000000000000E+00
(PID.TID 0000.0001) %MON g__dynstat_g_eta_sd          =   0.0000000000000E+00
(PID.TID 0000.0001) %MON g__dynstat_g_eta_del2        =   0.0000000000000E+00
(PID.TID 0000.0001) %MON g__dynstat_g_uvel_max        =   0.0000000000000E+00
(PID.TID 0000.0001) %MON g__dynstat_g_uvel_min        =   0.0000000000000E+00
(PID.TID 0000.0001) %MON g__dynstat_g_uvel_mean       =   0.0000000000000E+00
(PID.TID 0000.0001) %MON g__dynstat_g_uvel_sd         =   0.0000000000000E+00
(PID.TID 0000.0001) %MON g__dynstat_g_uvel_del2       =   0.0000000000000E+00
(PID.TID 0000.0001) %MON g__dynstat_g_vvel_max        =   0.0000000000000E+00
(PID.TID 0000.0001) %MON g__dynstat_g_vvel_min        =   0.0000000000000E+00
(PID.TID 0000.0001) %MON g__dynstat_g_vvel_mean       =   0.0000000000000E+00
(PID.TID 0000.0001) %MON g__dynstat_g_vvel_sd         =   0.0000000000000E+00
(PID.TID 0000.0001) %MON g__dynstat_g_vvel_del2       =   0.0000000000000E+00
(PID.TID 0000.0001) %MON g__dynstat_g_wvel_max        =   0.0000000000000E+00
(PID.TID 0000.0001) %MON g__dynstat_g_wvel_min        =   0.0000000000000E+00
(PID.TID 0000.0001) %MON g__dynstat_g_wvel_mean       =   0.0000000000000E+00
(PID.TID 0000.0001) %MON g__dynstat_g_wvel_sd         =   0.0000000000000E+00
(PID.TID 0000.0001) %MON g__dynstat_g_wvel_del2       =   0.0000000000000E+00
(PID.TID 0000.0001) %MON g__dynstat_g_theta_max       =   0.0000000000000E+00
(PID.TID 0000.0001) %MON g__dynstat_g_theta_min       =   0.0000000000000E+00
(PID.TID 0000.0001) %MON g__dynstat_g_theta_mean      =   0.0000000000000E+00
(PID.TID 0000.0001) %MON g__dynstat_g_theta_sd        =   0.0000000000000E+00
(PID.TID 0000.0001) %MON g__dynstat_g_theta_del2      =   0.0000000000000E+00
(PID.TID 0000.0001) %MON g__dynstat_g_salt_max        =   0.0000000000000E+00
(PID.TID 0000.0001) %MON g__dynstat_g_salt_min        =   0.0000000000000E+00
(PID.TID 0000.0001) %MON g__dynstat_g_salt_mean       =   0.0000000000000E+00
(PID.TID 0000.0001) %MON g__dynstat_g_salt_sd         =   0.0000000000000E+00
(PID.TID 0000.0001) %MON g__dynstat_g_salt_del2       =   0.0000000000000E+00
(PID.TID 0000.0001) %MON g__dynstat_g_sst_max         =   0.0000000000000E+00
(PID.TID 0000.0001) %MON g__dynstat_g_sst_min         =   0.0000000000000E+00
(PID.TID 0000.0001) %MON g__dynstat_g_sst_mean        =   0.0000000000000E+00
(PID.TID 0000.0001) %MON g__dynstat_g_sst_sd          =   0.0000000000000E+00
(PID.TID 0000.0001) %MON g__dynstat_g_sst_del2        =   0.0000000000000E+00
(PID.TID 0000.0001) %MON g__dynstat_g_sss_max         =   0.0000000000000E+00
(PID.TID 0000.0001) %MON g__dynstat_g_sss_min         =   0.0000000000000E+00
(PID.TID 0000.0001) %MON g__dynstat_g_sss_mean        =   0.0000000000000E+00
(PID.TID 0000.0001) %MON g__dynstat_g_sss_sd          =   0.0000000000000E+00
(PID.TID 0000.0001) %MON g__dynstat_g_sss_del2        =   0.0000000000000E+00
(PID.TID 0000.0001) %MON g__extforcing_g_qnet_max     =   0.0000000000000E+00
(PID.TID 0000.0001) %MON g__extforcing_g_qnet_min     =   0.0000000000000E+00
(PID.TID 0000.0001) %MON g__extforcing_g_qnet_mean    =   0.0000000000000E+00
(PID.TID 0000.0001) %MON g__extforcing_g_qnet_sd      =   0.0000000000000E+00
(PID.TID 0000.0001) %MON g__extforcing_g_qnet_del2    =   0.0000000000000E+00
(PID.TID 0000.0001) %MON g__extforcing_g_empmr_max    =   0.0000000000000E+00
(PID.TID 0000.0001) %MON g__extforcing_g_empmr_min    =   0.0000000000000E+00
(PID.TID 0000.0001) %MON g__extforcing_g_empmr_mean   =   0.0000000000000E+00
(PID.TID 0000.0001) %MON g__extforcing_g_empmr_sd     =   0.0000000000000E+00
(PID.TID 0000.0001) %MON g__extforcing_g_empmr_del2   =   0.0000000000000E+00
(PID.TID 0000.0001) %MON g__extforcing_g_fu_max       =   0.0000000000000E+00
(PID.TID 0000.0001) %MON g__extforcing_g_fu_min       =   0.0000000000000E+00
(PID.TID 0000.0001) %MON g__extforcing_g_fu_mean      =   0.0000000000000E+00
(PID.TID 0000.0001) %MON g__extforcing_g_fu_sd        =   0.0000000000000E+00
(PID.TID 0000.0001) %MON g__extforcing_g_fu_del2      =   0.0000000000000E+00
(PID.TID 0000.0001) %MON g__extforcing_g_fv_max       =   0.0000000000000E+00
(PID.TID 0000.0001) %MON g__extforcing_g_fv_min       =   0.0000000000000E+00
(PID.TID 0000.0001) %MON g__extforcing_g_fv_mean      =   0.0000000000000E+00
(PID.TID 0000.0001) %MON g__extforcing_g_fv_sd        =   0.0000000000000E+00
(PID.TID 0000.0001) %MON g__extforcing_g_fv_del2      =   0.0000000000000E+00
(PID.TID 0000.0001) %MON g__g_vcfl_g_uvel_max         =   0.0000000000000E+00
(PID.TID 0000.0001) %MON g__g_vcfl_g_vvel_max         =   0.0000000000000E+00
(PID.TID 0000.0001) %MON g__g_vcfl_g_wvel_max         =   0.0000000000000E+00
(PID.TID 0000.0001) %MON g__g_vcfl_g_W_hf_max         =   0.0000000000000E+00
(PID.TID 0000.0001) // =======================================================
(PID.TID 0000.0001) // End MONITOR dynamic field statistics
(PID.TID 0000.0001) // =======================================================
 cg2d: Sum(rhs),rhsMax =   0.00000000000000E+00  0.00000000000000E+00
 cg2d: Sum(rhs),rhsMax =  -8.60617133113806E-13  1.24298971531140E+01
(PID.TID 0000.0001) // =======================================================
(PID.TID 0000.0001) // Begin MONITOR dynamic field statistics
(PID.TID 0000.0001) // =======================================================
(PID.TID 0000.0001) %MON g__time_tsnumber             =                    26
(PID.TID 0000.0001) %MON g__time_secondsf             =   1.1232000000000E+06
(PID.TID 0000.0001) %MON g__dynstat_g_eta_max         =   0.0000000000000E+00
(PID.TID 0000.0001) %MON g__dynstat_g_eta_min         =   0.0000000000000E+00
(PID.TID 0000.0001) %MON g__dynstat_g_eta_mean        =   0.0000000000000E+00
(PID.TID 0000.0001) %MON g__dynstat_g_eta_sd          =   0.0000000000000E+00
(PID.TID 0000.0001) %MON g__dynstat_g_eta_del2        =   0.0000000000000E+00
(PID.TID 0000.0001) %MON g__dynstat_g_uvel_max        =   0.0000000000000E+00
(PID.TID 0000.0001) %MON g__dynstat_g_uvel_min        =   0.0000000000000E+00
(PID.TID 0000.0001) %MON g__dynstat_g_uvel_mean       =   0.0000000000000E+00
(PID.TID 0000.0001) %MON g__dynstat_g_uvel_sd         =   0.0000000000000E+00
(PID.TID 0000.0001) %MON g__dynstat_g_uvel_del2       =   0.0000000000000E+00
(PID.TID 0000.0001) %MON g__dynstat_g_vvel_max        =   0.0000000000000E+00
(PID.TID 0000.0001) %MON g__dynstat_g_vvel_min        =   0.0000000000000E+00
(PID.TID 0000.0001) %MON g__dynstat_g_vvel_mean       =   0.0000000000000E+00
(PID.TID 0000.0001) %MON g__dynstat_g_vvel_sd         =   0.0000000000000E+00
(PID.TID 0000.0001) %MON g__dynstat_g_vvel_del2       =   0.0000000000000E+00
(PID.TID 0000.0001) %MON g__dynstat_g_wvel_max        =   0.0000000000000E+00
(PID.TID 0000.0001) %MON g__dynstat_g_wvel_min        =   0.0000000000000E+00
(PID.TID 0000.0001) %MON g__dynstat_g_wvel_mean       =   0.0000000000000E+00
(PID.TID 0000.0001) %MON g__dynstat_g_wvel_sd         =   0.0000000000000E+00
(PID.TID 0000.0001) %MON g__dynstat_g_wvel_del2       =   0.0000000000000E+00
(PID.TID 0000.0001) %MON g__dynstat_g_theta_max       =   0.0000000000000E+00
(PID.TID 0000.0001) %MON g__dynstat_g_theta_min       =   0.0000000000000E+00
(PID.TID 0000.0001) %MON g__dynstat_g_theta_mean      =   0.0000000000000E+00
(PID.TID 0000.0001) %MON g__dynstat_g_theta_sd        =   0.0000000000000E+00
(PID.TID 0000.0001) %MON g__dynstat_g_theta_del2      =   0.0000000000000E+00
(PID.TID 0000.0001) %MON g__dynstat_g_salt_max        =   0.0000000000000E+00
(PID.TID 0000.0001) %MON g__dynstat_g_salt_min        =   0.0000000000000E+00
(PID.TID 0000.0001) %MON g__dynstat_g_salt_mean       =   0.0000000000000E+00
(PID.TID 0000.0001) %MON g__dynstat_g_salt_sd         =   0.0000000000000E+00
(PID.TID 0000.0001) %MON g__dynstat_g_salt_del2       =   0.0000000000000E+00
(PID.TID 0000.0001) %MON g__dynstat_g_sst_max         =   0.0000000000000E+00
(PID.TID 0000.0001) %MON g__dynstat_g_sst_min         =   0.0000000000000E+00
(PID.TID 0000.0001) %MON g__dynstat_g_sst_mean        =   0.0000000000000E+00
(PID.TID 0000.0001) %MON g__dynstat_g_sst_sd          =   0.0000000000000E+00
(PID.TID 0000.0001) %MON g__dynstat_g_sst_del2        =   0.0000000000000E+00
(PID.TID 0000.0001) %MON g__dynstat_g_sss_max         =   0.0000000000000E+00
(PID.TID 0000.0001) %MON g__dynstat_g_sss_min         =   0.0000000000000E+00
(PID.TID 0000.0001) %MON g__dynstat_g_sss_mean        =   0.0000000000000E+00
(PID.TID 0000.0001) %MON g__dynstat_g_sss_sd          =   0.0000000000000E+00
(PID.TID 0000.0001) %MON g__dynstat_g_sss_del2        =   0.0000000000000E+00
(PID.TID 0000.0001) %MON g__extforcing_g_qnet_max     =   0.0000000000000E+00
(PID.TID 0000.0001) %MON g__extforcing_g_qnet_min     =   0.0000000000000E+00
(PID.TID 0000.0001) %MON g__extforcing_g_qnet_mean    =   0.0000000000000E+00
(PID.TID 0000.0001) %MON g__extforcing_g_qnet_sd      =   0.0000000000000E+00
(PID.TID 0000.0001) %MON g__extforcing_g_qnet_del2    =   0.0000000000000E+00
(PID.TID 0000.0001) %MON g__extforcing_g_empmr_max    =   0.0000000000000E+00
(PID.TID 0000.0001) %MON g__extforcing_g_empmr_min    =   0.0000000000000E+00
(PID.TID 0000.0001) %MON g__extforcing_g_empmr_mean   =   0.0000000000000E+00
(PID.TID 0000.0001) %MON g__extforcing_g_empmr_sd     =   0.0000000000000E+00
(PID.TID 0000.0001) %MON g__extforcing_g_empmr_del2   =   0.0000000000000E+00
(PID.TID 0000.0001) %MON g__extforcing_g_fu_max       =   0.0000000000000E+00
(PID.TID 0000.0001) %MON g__extforcing_g_fu_min       =   0.0000000000000E+00
(PID.TID 0000.0001) %MON g__extforcing_g_fu_mean      =   0.0000000000000E+00
(PID.TID 0000.0001) %MON g__extforcing_g_fu_sd        =   0.0000000000000E+00
(PID.TID 0000.0001) %MON g__extforcing_g_fu_del2      =   0.0000000000000E+00
(PID.TID 0000.0001) %MON g__extforcing_g_fv_max       =   0.0000000000000E+00
(PID.TID 0000.0001) %MON g__extforcing_g_fv_min       =   0.0000000000000E+00
(PID.TID 0000.0001) %MON g__extforcing_g_fv_mean      =   0.0000000000000E+00
(PID.TID 0000.0001) %MON g__extforcing_g_fv_sd        =   0.0000000000000E+00
(PID.TID 0000.0001) %MON g__extforcing_g_fv_del2      =   0.0000000000000E+00
(PID.TID 0000.0001) %MON g__g_vcfl_g_uvel_max         =   0.0000000000000E+00
(PID.TID 0000.0001) %MON g__g_vcfl_g_vvel_max         =   0.0000000000000E+00
(PID.TID 0000.0001) %MON g__g_vcfl_g_wvel_max         =   0.0000000000000E+00
(PID.TID 0000.0001) %MON g__g_vcfl_g_W_hf_max         =   0.0000000000000E+00
(PID.TID 0000.0001) // =======================================================
(PID.TID 0000.0001) // End MONITOR dynamic field statistics
(PID.TID 0000.0001) // =======================================================
 cg2d: Sum(rhs),rhsMax =   0.00000000000000E+00  0.00000000000000E+00
 cg2d: Sum(rhs),rhsMax =  -1.07162542728467E-12  1.22139653314387E+01
(PID.TID 0000.0001) // =======================================================
(PID.TID 0000.0001) // Begin MONITOR dynamic field statistics
(PID.TID 0000.0001) // =======================================================
(PID.TID 0000.0001) %MON g__time_tsnumber             =                    27
(PID.TID 0000.0001) %MON g__time_secondsf             =   1.1664000000000E+06
(PID.TID 0000.0001) %MON g__dynstat_g_eta_max         =   0.0000000000000E+00
(PID.TID 0000.0001) %MON g__dynstat_g_eta_min         =   0.0000000000000E+00
(PID.TID 0000.0001) %MON g__dynstat_g_eta_mean        =   0.0000000000000E+00
(PID.TID 0000.0001) %MON g__dynstat_g_eta_sd          =   0.0000000000000E+00
(PID.TID 0000.0001) %MON g__dynstat_g_eta_del2        =   0.0000000000000E+00
(PID.TID 0000.0001) %MON g__dynstat_g_uvel_max        =   0.0000000000000E+00
(PID.TID 0000.0001) %MON g__dynstat_g_uvel_min        =   0.0000000000000E+00
(PID.TID 0000.0001) %MON g__dynstat_g_uvel_mean       =   0.0000000000000E+00
(PID.TID 0000.0001) %MON g__dynstat_g_uvel_sd         =   0.0000000000000E+00
(PID.TID 0000.0001) %MON g__dynstat_g_uvel_del2       =   0.0000000000000E+00
(PID.TID 0000.0001) %MON g__dynstat_g_vvel_max        =   0.0000000000000E+00
(PID.TID 0000.0001) %MON g__dynstat_g_vvel_min        =   0.0000000000000E+00
(PID.TID 0000.0001) %MON g__dynstat_g_vvel_mean       =   0.0000000000000E+00
(PID.TID 0000.0001) %MON g__dynstat_g_vvel_sd         =   0.0000000000000E+00
(PID.TID 0000.0001) %MON g__dynstat_g_vvel_del2       =   0.0000000000000E+00
(PID.TID 0000.0001) %MON g__dynstat_g_wvel_max        =   0.0000000000000E+00
(PID.TID 0000.0001) %MON g__dynstat_g_wvel_min        =   0.0000000000000E+00
(PID.TID 0000.0001) %MON g__dynstat_g_wvel_mean       =   0.0000000000000E+00
(PID.TID 0000.0001) %MON g__dynstat_g_wvel_sd         =   0.0000000000000E+00
(PID.TID 0000.0001) %MON g__dynstat_g_wvel_del2       =   0.0000000000000E+00
(PID.TID 0000.0001) %MON g__dynstat_g_theta_max       =   0.0000000000000E+00
(PID.TID 0000.0001) %MON g__dynstat_g_theta_min       =   0.0000000000000E+00
(PID.TID 0000.0001) %MON g__dynstat_g_theta_mean      =   0.0000000000000E+00
(PID.TID 0000.0001) %MON g__dynstat_g_theta_sd        =   0.0000000000000E+00
(PID.TID 0000.0001) %MON g__dynstat_g_theta_del2      =   0.0000000000000E+00
(PID.TID 0000.0001) %MON g__dynstat_g_salt_max        =   0.0000000000000E+00
(PID.TID 0000.0001) %MON g__dynstat_g_salt_min        =   0.0000000000000E+00
(PID.TID 0000.0001) %MON g__dynstat_g_salt_mean       =   0.0000000000000E+00
(PID.TID 0000.0001) %MON g__dynstat_g_salt_sd         =   0.0000000000000E+00
(PID.TID 0000.0001) %MON g__dynstat_g_salt_del2       =   0.0000000000000E+00
(PID.TID 0000.0001) %MON g__dynstat_g_sst_max         =   0.0000000000000E+00
(PID.TID 0000.0001) %MON g__dynstat_g_sst_min         =   0.0000000000000E+00
(PID.TID 0000.0001) %MON g__dynstat_g_sst_mean        =   0.0000000000000E+00
(PID.TID 0000.0001) %MON g__dynstat_g_sst_sd          =   0.0000000000000E+00
(PID.TID 0000.0001) %MON g__dynstat_g_sst_del2        =   0.0000000000000E+00
(PID.TID 0000.0001) %MON g__dynstat_g_sss_max         =   0.0000000000000E+00
(PID.TID 0000.0001) %MON g__dynstat_g_sss_min         =   0.0000000000000E+00
(PID.TID 0000.0001) %MON g__dynstat_g_sss_mean        =   0.0000000000000E+00
(PID.TID 0000.0001) %MON g__dynstat_g_sss_sd          =   0.0000000000000E+00
(PID.TID 0000.0001) %MON g__dynstat_g_sss_del2        =   0.0000000000000E+00
(PID.TID 0000.0001) %MON g__extforcing_g_qnet_max     =   0.0000000000000E+00
(PID.TID 0000.0001) %MON g__extforcing_g_qnet_min     =   0.0000000000000E+00
(PID.TID 0000.0001) %MON g__extforcing_g_qnet_mean    =   0.0000000000000E+00
(PID.TID 0000.0001) %MON g__extforcing_g_qnet_sd      =   0.0000000000000E+00
(PID.TID 0000.0001) %MON g__extforcing_g_qnet_del2    =   0.0000000000000E+00
(PID.TID 0000.0001) %MON g__extforcing_g_empmr_max    =   0.0000000000000E+00
(PID.TID 0000.0001) %MON g__extforcing_g_empmr_min    =   0.0000000000000E+00
(PID.TID 0000.0001) %MON g__extforcing_g_empmr_mean   =   0.0000000000000E+00
(PID.TID 0000.0001) %MON g__extforcing_g_empmr_sd     =   0.0000000000000E+00
(PID.TID 0000.0001) %MON g__extforcing_g_empmr_del2   =   0.0000000000000E+00
(PID.TID 0000.0001) %MON g__extforcing_g_fu_max       =   0.0000000000000E+00
(PID.TID 0000.0001) %MON g__extforcing_g_fu_min       =   0.0000000000000E+00
(PID.TID 0000.0001) %MON g__extforcing_g_fu_mean      =   0.0000000000000E+00
(PID.TID 0000.0001) %MON g__extforcing_g_fu_sd        =   0.0000000000000E+00
(PID.TID 0000.0001) %MON g__extforcing_g_fu_del2      =   0.0000000000000E+00
(PID.TID 0000.0001) %MON g__extforcing_g_fv_max       =   0.0000000000000E+00
(PID.TID 0000.0001) %MON g__extforcing_g_fv_min       =   0.0000000000000E+00
(PID.TID 0000.0001) %MON g__extforcing_g_fv_mean      =   0.0000000000000E+00
(PID.TID 0000.0001) %MON g__extforcing_g_fv_sd        =   0.0000000000000E+00
(PID.TID 0000.0001) %MON g__extforcing_g_fv_del2      =   0.0000000000000E+00
(PID.TID 0000.0001) %MON g__g_vcfl_g_uvel_max         =   0.0000000000000E+00
(PID.TID 0000.0001) %MON g__g_vcfl_g_vvel_max         =   0.0000000000000E+00
(PID.TID 0000.0001) %MON g__g_vcfl_g_wvel_max         =   0.0000000000000E+00
(PID.TID 0000.0001) %MON g__g_vcfl_g_W_hf_max         =   0.0000000000000E+00
(PID.TID 0000.0001) // =======================================================
(PID.TID 0000.0001) // End MONITOR dynamic field statistics
(PID.TID 0000.0001) // =======================================================
 cg2d: Sum(rhs),rhsMax =   0.00000000000000E+00  0.00000000000000E+00
 cg2d: Sum(rhs),rhsMax =  -1.22979404437729E-12  1.17775992285089E+01
(PID.TID 0000.0001) // =======================================================
(PID.TID 0000.0001) // Begin MONITOR dynamic field statistics
(PID.TID 0000.0001) // =======================================================
(PID.TID 0000.0001) %MON g__time_tsnumber             =                    28
(PID.TID 0000.0001) %MON g__time_secondsf             =   1.2096000000000E+06
(PID.TID 0000.0001) %MON g__dynstat_g_eta_max         =   0.0000000000000E+00
(PID.TID 0000.0001) %MON g__dynstat_g_eta_min         =   0.0000000000000E+00
(PID.TID 0000.0001) %MON g__dynstat_g_eta_mean        =   0.0000000000000E+00
(PID.TID 0000.0001) %MON g__dynstat_g_eta_sd          =   0.0000000000000E+00
(PID.TID 0000.0001) %MON g__dynstat_g_eta_del2        =   0.0000000000000E+00
(PID.TID 0000.0001) %MON g__dynstat_g_uvel_max        =   0.0000000000000E+00
(PID.TID 0000.0001) %MON g__dynstat_g_uvel_min        =   0.0000000000000E+00
(PID.TID 0000.0001) %MON g__dynstat_g_uvel_mean       =   0.0000000000000E+00
(PID.TID 0000.0001) %MON g__dynstat_g_uvel_sd         =   0.0000000000000E+00
(PID.TID 0000.0001) %MON g__dynstat_g_uvel_del2       =   0.0000000000000E+00
(PID.TID 0000.0001) %MON g__dynstat_g_vvel_max        =   0.0000000000000E+00
(PID.TID 0000.0001) %MON g__dynstat_g_vvel_min        =   0.0000000000000E+00
(PID.TID 0000.0001) %MON g__dynstat_g_vvel_mean       =   0.0000000000000E+00
(PID.TID 0000.0001) %MON g__dynstat_g_vvel_sd         =   0.0000000000000E+00
(PID.TID 0000.0001) %MON g__dynstat_g_vvel_del2       =   0.0000000000000E+00
(PID.TID 0000.0001) %MON g__dynstat_g_wvel_max        =   0.0000000000000E+00
(PID.TID 0000.0001) %MON g__dynstat_g_wvel_min        =   0.0000000000000E+00
(PID.TID 0000.0001) %MON g__dynstat_g_wvel_mean       =   0.0000000000000E+00
(PID.TID 0000.0001) %MON g__dynstat_g_wvel_sd         =   0.0000000000000E+00
(PID.TID 0000.0001) %MON g__dynstat_g_wvel_del2       =   0.0000000000000E+00
(PID.TID 0000.0001) %MON g__dynstat_g_theta_max       =   0.0000000000000E+00
(PID.TID 0000.0001) %MON g__dynstat_g_theta_min       =   0.0000000000000E+00
(PID.TID 0000.0001) %MON g__dynstat_g_theta_mean      =   0.0000000000000E+00
(PID.TID 0000.0001) %MON g__dynstat_g_theta_sd        =   0.0000000000000E+00
(PID.TID 0000.0001) %MON g__dynstat_g_theta_del2      =   0.0000000000000E+00
(PID.TID 0000.0001) %MON g__dynstat_g_salt_max        =   0.0000000000000E+00
(PID.TID 0000.0001) %MON g__dynstat_g_salt_min        =   0.0000000000000E+00
(PID.TID 0000.0001) %MON g__dynstat_g_salt_mean       =   0.0000000000000E+00
(PID.TID 0000.0001) %MON g__dynstat_g_salt_sd         =   0.0000000000000E+00
(PID.TID 0000.0001) %MON g__dynstat_g_salt_del2       =   0.0000000000000E+00
(PID.TID 0000.0001) %MON g__dynstat_g_sst_max         =   0.0000000000000E+00
(PID.TID 0000.0001) %MON g__dynstat_g_sst_min         =   0.0000000000000E+00
(PID.TID 0000.0001) %MON g__dynstat_g_sst_mean        =   0.0000000000000E+00
(PID.TID 0000.0001) %MON g__dynstat_g_sst_sd          =   0.0000000000000E+00
(PID.TID 0000.0001) %MON g__dynstat_g_sst_del2        =   0.0000000000000E+00
(PID.TID 0000.0001) %MON g__dynstat_g_sss_max         =   0.0000000000000E+00
(PID.TID 0000.0001) %MON g__dynstat_g_sss_min         =   0.0000000000000E+00
(PID.TID 0000.0001) %MON g__dynstat_g_sss_mean        =   0.0000000000000E+00
(PID.TID 0000.0001) %MON g__dynstat_g_sss_sd          =   0.0000000000000E+00
(PID.TID 0000.0001) %MON g__dynstat_g_sss_del2        =   0.0000000000000E+00
(PID.TID 0000.0001) %MON g__extforcing_g_qnet_max     =   0.0000000000000E+00
(PID.TID 0000.0001) %MON g__extforcing_g_qnet_min     =   0.0000000000000E+00
(PID.TID 0000.0001) %MON g__extforcing_g_qnet_mean    =   0.0000000000000E+00
(PID.TID 0000.0001) %MON g__extforcing_g_qnet_sd      =   0.0000000000000E+00
(PID.TID 0000.0001) %MON g__extforcing_g_qnet_del2    =   0.0000000000000E+00
(PID.TID 0000.0001) %MON g__extforcing_g_empmr_max    =   0.0000000000000E+00
(PID.TID 0000.0001) %MON g__extforcing_g_empmr_min    =   0.0000000000000E+00
(PID.TID 0000.0001) %MON g__extforcing_g_empmr_mean   =   0.0000000000000E+00
(PID.TID 0000.0001) %MON g__extforcing_g_empmr_sd     =   0.0000000000000E+00
(PID.TID 0000.0001) %MON g__extforcing_g_empmr_del2   =   0.0000000000000E+00
(PID.TID 0000.0001) %MON g__extforcing_g_fu_max       =   0.0000000000000E+00
(PID.TID 0000.0001) %MON g__extforcing_g_fu_min       =   0.0000000000000E+00
(PID.TID 0000.0001) %MON g__extforcing_g_fu_mean      =   0.0000000000000E+00
(PID.TID 0000.0001) %MON g__extforcing_g_fu_sd        =   0.0000000000000E+00
(PID.TID 0000.0001) %MON g__extforcing_g_fu_del2      =   0.0000000000000E+00
(PID.TID 0000.0001) %MON g__extforcing_g_fv_max       =   0.0000000000000E+00
(PID.TID 0000.0001) %MON g__extforcing_g_fv_min       =   0.0000000000000E+00
(PID.TID 0000.0001) %MON g__extforcing_g_fv_mean      =   0.0000000000000E+00
(PID.TID 0000.0001) %MON g__extforcing_g_fv_sd        =   0.0000000000000E+00
(PID.TID 0000.0001) %MON g__extforcing_g_fv_del2      =   0.0000000000000E+00
(PID.TID 0000.0001) %MON g__g_vcfl_g_uvel_max         =   0.0000000000000E+00
(PID.TID 0000.0001) %MON g__g_vcfl_g_vvel_max         =   0.0000000000000E+00
(PID.TID 0000.0001) %MON g__g_vcfl_g_wvel_max         =   0.0000000000000E+00
(PID.TID 0000.0001) %MON g__g_vcfl_g_W_hf_max         =   0.0000000000000E+00
(PID.TID 0000.0001) // =======================================================
(PID.TID 0000.0001) // End MONITOR dynamic field statistics
(PID.TID 0000.0001) // =======================================================
 cg2d: Sum(rhs),rhsMax =   0.00000000000000E+00  0.00000000000000E+00
 cg2d: Sum(rhs),rhsMax =  -8.29017410275412E-13  1.11321543547212E+01
(PID.TID 0000.0001) // =======================================================
(PID.TID 0000.0001) // Begin MONITOR dynamic field statistics
(PID.TID 0000.0001) // =======================================================
(PID.TID 0000.0001) %MON g__time_tsnumber             =                    29
(PID.TID 0000.0001) %MON g__time_secondsf             =   1.2528000000000E+06
(PID.TID 0000.0001) %MON g__dynstat_g_eta_max         =   0.0000000000000E+00
(PID.TID 0000.0001) %MON g__dynstat_g_eta_min         =   0.0000000000000E+00
(PID.TID 0000.0001) %MON g__dynstat_g_eta_mean        =   0.0000000000000E+00
(PID.TID 0000.0001) %MON g__dynstat_g_eta_sd          =   0.0000000000000E+00
(PID.TID 0000.0001) %MON g__dynstat_g_eta_del2        =   0.0000000000000E+00
(PID.TID 0000.0001) %MON g__dynstat_g_uvel_max        =   0.0000000000000E+00
(PID.TID 0000.0001) %MON g__dynstat_g_uvel_min        =   0.0000000000000E+00
(PID.TID 0000.0001) %MON g__dynstat_g_uvel_mean       =   0.0000000000000E+00
(PID.TID 0000.0001) %MON g__dynstat_g_uvel_sd         =   0.0000000000000E+00
(PID.TID 0000.0001) %MON g__dynstat_g_uvel_del2       =   0.0000000000000E+00
(PID.TID 0000.0001) %MON g__dynstat_g_vvel_max        =   0.0000000000000E+00
(PID.TID 0000.0001) %MON g__dynstat_g_vvel_min        =   0.0000000000000E+00
(PID.TID 0000.0001) %MON g__dynstat_g_vvel_mean       =   0.0000000000000E+00
(PID.TID 0000.0001) %MON g__dynstat_g_vvel_sd         =   0.0000000000000E+00
(PID.TID 0000.0001) %MON g__dynstat_g_vvel_del2       =   0.0000000000000E+00
(PID.TID 0000.0001) %MON g__dynstat_g_wvel_max        =   0.0000000000000E+00
(PID.TID 0000.0001) %MON g__dynstat_g_wvel_min        =   0.0000000000000E+00
(PID.TID 0000.0001) %MON g__dynstat_g_wvel_mean       =   0.0000000000000E+00
(PID.TID 0000.0001) %MON g__dynstat_g_wvel_sd         =   0.0000000000000E+00
(PID.TID 0000.0001) %MON g__dynstat_g_wvel_del2       =   0.0000000000000E+00
(PID.TID 0000.0001) %MON g__dynstat_g_theta_max       =   0.0000000000000E+00
(PID.TID 0000.0001) %MON g__dynstat_g_theta_min       =   0.0000000000000E+00
(PID.TID 0000.0001) %MON g__dynstat_g_theta_mean      =   0.0000000000000E+00
(PID.TID 0000.0001) %MON g__dynstat_g_theta_sd        =   0.0000000000000E+00
(PID.TID 0000.0001) %MON g__dynstat_g_theta_del2      =   0.0000000000000E+00
(PID.TID 0000.0001) %MON g__dynstat_g_salt_max        =   0.0000000000000E+00
(PID.TID 0000.0001) %MON g__dynstat_g_salt_min        =   0.0000000000000E+00
(PID.TID 0000.0001) %MON g__dynstat_g_salt_mean       =   0.0000000000000E+00
(PID.TID 0000.0001) %MON g__dynstat_g_salt_sd         =   0.0000000000000E+00
(PID.TID 0000.0001) %MON g__dynstat_g_salt_del2       =   0.0000000000000E+00
(PID.TID 0000.0001) %MON g__dynstat_g_sst_max         =   0.0000000000000E+00
(PID.TID 0000.0001) %MON g__dynstat_g_sst_min         =   0.0000000000000E+00
(PID.TID 0000.0001) %MON g__dynstat_g_sst_mean        =   0.0000000000000E+00
(PID.TID 0000.0001) %MON g__dynstat_g_sst_sd          =   0.0000000000000E+00
(PID.TID 0000.0001) %MON g__dynstat_g_sst_del2        =   0.0000000000000E+00
(PID.TID 0000.0001) %MON g__dynstat_g_sss_max         =   0.0000000000000E+00
(PID.TID 0000.0001) %MON g__dynstat_g_sss_min         =   0.0000000000000E+00
(PID.TID 0000.0001) %MON g__dynstat_g_sss_mean        =   0.0000000000000E+00
(PID.TID 0000.0001) %MON g__dynstat_g_sss_sd          =   0.0000000000000E+00
(PID.TID 0000.0001) %MON g__dynstat_g_sss_del2        =   0.0000000000000E+00
(PID.TID 0000.0001) %MON g__extforcing_g_qnet_max     =   0.0000000000000E+00
(PID.TID 0000.0001) %MON g__extforcing_g_qnet_min     =   0.0000000000000E+00
(PID.TID 0000.0001) %MON g__extforcing_g_qnet_mean    =   0.0000000000000E+00
(PID.TID 0000.0001) %MON g__extforcing_g_qnet_sd      =   0.0000000000000E+00
(PID.TID 0000.0001) %MON g__extforcing_g_qnet_del2    =   0.0000000000000E+00
(PID.TID 0000.0001) %MON g__extforcing_g_empmr_max    =   0.0000000000000E+00
(PID.TID 0000.0001) %MON g__extforcing_g_empmr_min    =   0.0000000000000E+00
(PID.TID 0000.0001) %MON g__extforcing_g_empmr_mean   =   0.0000000000000E+00
(PID.TID 0000.0001) %MON g__extforcing_g_empmr_sd     =   0.0000000000000E+00
(PID.TID 0000.0001) %MON g__extforcing_g_empmr_del2   =   0.0000000000000E+00
(PID.TID 0000.0001) %MON g__extforcing_g_fu_max       =   0.0000000000000E+00
(PID.TID 0000.0001) %MON g__extforcing_g_fu_min       =   0.0000000000000E+00
(PID.TID 0000.0001) %MON g__extforcing_g_fu_mean      =   0.0000000000000E+00
(PID.TID 0000.0001) %MON g__extforcing_g_fu_sd        =   0.0000000000000E+00
(PID.TID 0000.0001) %MON g__extforcing_g_fu_del2      =   0.0000000000000E+00
(PID.TID 0000.0001) %MON g__extforcing_g_fv_max       =   0.0000000000000E+00
(PID.TID 0000.0001) %MON g__extforcing_g_fv_min       =   0.0000000000000E+00
(PID.TID 0000.0001) %MON g__extforcing_g_fv_mean      =   0.0000000000000E+00
(PID.TID 0000.0001) %MON g__extforcing_g_fv_sd        =   0.0000000000000E+00
(PID.TID 0000.0001) %MON g__extforcing_g_fv_del2      =   0.0000000000000E+00
(PID.TID 0000.0001) %MON g__g_vcfl_g_uvel_max         =   0.0000000000000E+00
(PID.TID 0000.0001) %MON g__g_vcfl_g_vvel_max         =   0.0000000000000E+00
(PID.TID 0000.0001) %MON g__g_vcfl_g_wvel_max         =   0.0000000000000E+00
(PID.TID 0000.0001) %MON g__g_vcfl_g_W_hf_max         =   0.0000000000000E+00
(PID.TID 0000.0001) // =======================================================
(PID.TID 0000.0001) // End MONITOR dynamic field statistics
(PID.TID 0000.0001) // =======================================================
 cg2d: Sum(rhs),rhsMax =   0.00000000000000E+00  0.00000000000000E+00
 cg2d: Sum(rhs),rhsMax =  -1.55738963392160E-12  1.02967139423326E+01
(PID.TID 0000.0001) // =======================================================
(PID.TID 0000.0001) // Begin MONITOR dynamic field statistics
(PID.TID 0000.0001) // =======================================================
(PID.TID 0000.0001) %MON g__time_tsnumber             =                    30
(PID.TID 0000.0001) %MON g__time_secondsf             =   1.2960000000000E+06
(PID.TID 0000.0001) %MON g__dynstat_g_eta_max         =   0.0000000000000E+00
(PID.TID 0000.0001) %MON g__dynstat_g_eta_min         =   0.0000000000000E+00
(PID.TID 0000.0001) %MON g__dynstat_g_eta_mean        =   0.0000000000000E+00
(PID.TID 0000.0001) %MON g__dynstat_g_eta_sd          =   0.0000000000000E+00
(PID.TID 0000.0001) %MON g__dynstat_g_eta_del2        =   0.0000000000000E+00
(PID.TID 0000.0001) %MON g__dynstat_g_uvel_max        =   0.0000000000000E+00
(PID.TID 0000.0001) %MON g__dynstat_g_uvel_min        =   0.0000000000000E+00
(PID.TID 0000.0001) %MON g__dynstat_g_uvel_mean       =   0.0000000000000E+00
(PID.TID 0000.0001) %MON g__dynstat_g_uvel_sd         =   0.0000000000000E+00
(PID.TID 0000.0001) %MON g__dynstat_g_uvel_del2       =   0.0000000000000E+00
(PID.TID 0000.0001) %MON g__dynstat_g_vvel_max        =   0.0000000000000E+00
(PID.TID 0000.0001) %MON g__dynstat_g_vvel_min        =   0.0000000000000E+00
(PID.TID 0000.0001) %MON g__dynstat_g_vvel_mean       =   0.0000000000000E+00
(PID.TID 0000.0001) %MON g__dynstat_g_vvel_sd         =   0.0000000000000E+00
(PID.TID 0000.0001) %MON g__dynstat_g_vvel_del2       =   0.0000000000000E+00
(PID.TID 0000.0001) %MON g__dynstat_g_wvel_max        =   0.0000000000000E+00
(PID.TID 0000.0001) %MON g__dynstat_g_wvel_min        =   0.0000000000000E+00
(PID.TID 0000.0001) %MON g__dynstat_g_wvel_mean       =   0.0000000000000E+00
(PID.TID 0000.0001) %MON g__dynstat_g_wvel_sd         =   0.0000000000000E+00
(PID.TID 0000.0001) %MON g__dynstat_g_wvel_del2       =   0.0000000000000E+00
(PID.TID 0000.0001) %MON g__dynstat_g_theta_max       =   0.0000000000000E+00
(PID.TID 0000.0001) %MON g__dynstat_g_theta_min       =   0.0000000000000E+00
(PID.TID 0000.0001) %MON g__dynstat_g_theta_mean      =   0.0000000000000E+00
(PID.TID 0000.0001) %MON g__dynstat_g_theta_sd        =   0.0000000000000E+00
(PID.TID 0000.0001) %MON g__dynstat_g_theta_del2      =   0.0000000000000E+00
(PID.TID 0000.0001) %MON g__dynstat_g_salt_max        =   0.0000000000000E+00
(PID.TID 0000.0001) %MON g__dynstat_g_salt_min        =   0.0000000000000E+00
(PID.TID 0000.0001) %MON g__dynstat_g_salt_mean       =   0.0000000000000E+00
(PID.TID 0000.0001) %MON g__dynstat_g_salt_sd         =   0.0000000000000E+00
(PID.TID 0000.0001) %MON g__dynstat_g_salt_del2       =   0.0000000000000E+00
(PID.TID 0000.0001) %MON g__dynstat_g_sst_max         =   0.0000000000000E+00
(PID.TID 0000.0001) %MON g__dynstat_g_sst_min         =   0.0000000000000E+00
(PID.TID 0000.0001) %MON g__dynstat_g_sst_mean        =   0.0000000000000E+00
(PID.TID 0000.0001) %MON g__dynstat_g_sst_sd          =   0.0000000000000E+00
(PID.TID 0000.0001) %MON g__dynstat_g_sst_del2        =   0.0000000000000E+00
(PID.TID 0000.0001) %MON g__dynstat_g_sss_max         =   0.0000000000000E+00
(PID.TID 0000.0001) %MON g__dynstat_g_sss_min         =   0.0000000000000E+00
(PID.TID 0000.0001) %MON g__dynstat_g_sss_mean        =   0.0000000000000E+00
(PID.TID 0000.0001) %MON g__dynstat_g_sss_sd          =   0.0000000000000E+00
(PID.TID 0000.0001) %MON g__dynstat_g_sss_del2        =   0.0000000000000E+00
(PID.TID 0000.0001) %MON g__extforcing_g_qnet_max     =   0.0000000000000E+00
(PID.TID 0000.0001) %MON g__extforcing_g_qnet_min     =   0.0000000000000E+00
(PID.TID 0000.0001) %MON g__extforcing_g_qnet_mean    =   0.0000000000000E+00
(PID.TID 0000.0001) %MON g__extforcing_g_qnet_sd      =   0.0000000000000E+00
(PID.TID 0000.0001) %MON g__extforcing_g_qnet_del2    =   0.0000000000000E+00
(PID.TID 0000.0001) %MON g__extforcing_g_empmr_max    =   0.0000000000000E+00
(PID.TID 0000.0001) %MON g__extforcing_g_empmr_min    =   0.0000000000000E+00
(PID.TID 0000.0001) %MON g__extforcing_g_empmr_mean   =   0.0000000000000E+00
(PID.TID 0000.0001) %MON g__extforcing_g_empmr_sd     =   0.0000000000000E+00
(PID.TID 0000.0001) %MON g__extforcing_g_empmr_del2   =   0.0000000000000E+00
(PID.TID 0000.0001) %MON g__extforcing_g_fu_max       =   0.0000000000000E+00
(PID.TID 0000.0001) %MON g__extforcing_g_fu_min       =   0.0000000000000E+00
(PID.TID 0000.0001) %MON g__extforcing_g_fu_mean      =   0.0000000000000E+00
(PID.TID 0000.0001) %MON g__extforcing_g_fu_sd        =   0.0000000000000E+00
(PID.TID 0000.0001) %MON g__extforcing_g_fu_del2      =   0.0000000000000E+00
(PID.TID 0000.0001) %MON g__extforcing_g_fv_max       =   0.0000000000000E+00
(PID.TID 0000.0001) %MON g__extforcing_g_fv_min       =   0.0000000000000E+00
(PID.TID 0000.0001) %MON g__extforcing_g_fv_mean      =   0.0000000000000E+00
(PID.TID 0000.0001) %MON g__extforcing_g_fv_sd        =   0.0000000000000E+00
(PID.TID 0000.0001) %MON g__extforcing_g_fv_del2      =   0.0000000000000E+00
(PID.TID 0000.0001) %MON g__g_vcfl_g_uvel_max         =   0.0000000000000E+00
(PID.TID 0000.0001) %MON g__g_vcfl_g_vvel_max         =   0.0000000000000E+00
(PID.TID 0000.0001) %MON g__g_vcfl_g_wvel_max         =   0.0000000000000E+00
(PID.TID 0000.0001) %MON g__g_vcfl_g_W_hf_max         =   0.0000000000000E+00
(PID.TID 0000.0001) // =======================================================
(PID.TID 0000.0001) // End MONITOR dynamic field statistics
(PID.TID 0000.0001) // =======================================================
(PID.TID 0000.0001)  MDSREADFIELD: opening global file: trenberth_taux.bin
(PID.TID 0000.0001)  MDSREADFIELD: opening global file: trenberth_taux.bin
(PID.TID 0000.0001)  MDSREADFIELD: opening global file: trenberth_tauy.bin
(PID.TID 0000.0001)  MDSREADFIELD: opening global file: trenberth_tauy.bin
(PID.TID 0000.0001)  MDSREADFIELD: opening global file: ncep_qnet.bin
(PID.TID 0000.0001)  MDSREADFIELD: opening global file: ncep_qnet.bin
(PID.TID 0000.0001)  MDSREADFIELD: opening global file: lev_sst.bin
(PID.TID 0000.0001)  MDSREADFIELD: opening global file: lev_sst.bin
(PID.TID 0000.0001)  MDSREADFIELD: opening global file: lev_sss.bin
(PID.TID 0000.0001)  MDSREADFIELD: opening global file: lev_sss.bin
 myIter=  30
(PID.TID 0000.0001) // Model state written, timestep        30
(PID.TID 0000.0001) 
 cg2d: Sum(rhs),rhsMax =   0.00000000000000E+00  0.00000000000000E+00
 cg2d: Sum(rhs),rhsMax =  -1.33625749354493E-12  9.29740447830930E+00
(PID.TID 0000.0001) // =======================================================
(PID.TID 0000.0001) // Begin MONITOR dynamic field statistics
(PID.TID 0000.0001) // =======================================================
(PID.TID 0000.0001) %MON g__time_tsnumber             =                    31
(PID.TID 0000.0001) %MON g__time_secondsf             =   1.3392000000000E+06
(PID.TID 0000.0001) %MON g__dynstat_g_eta_max         =   0.0000000000000E+00
(PID.TID 0000.0001) %MON g__dynstat_g_eta_min         =   0.0000000000000E+00
(PID.TID 0000.0001) %MON g__dynstat_g_eta_mean        =   0.0000000000000E+00
(PID.TID 0000.0001) %MON g__dynstat_g_eta_sd          =   0.0000000000000E+00
(PID.TID 0000.0001) %MON g__dynstat_g_eta_del2        =   0.0000000000000E+00
(PID.TID 0000.0001) %MON g__dynstat_g_uvel_max        =   0.0000000000000E+00
(PID.TID 0000.0001) %MON g__dynstat_g_uvel_min        =   0.0000000000000E+00
(PID.TID 0000.0001) %MON g__dynstat_g_uvel_mean       =   0.0000000000000E+00
(PID.TID 0000.0001) %MON g__dynstat_g_uvel_sd         =   0.0000000000000E+00
(PID.TID 0000.0001) %MON g__dynstat_g_uvel_del2       =   0.0000000000000E+00
(PID.TID 0000.0001) %MON g__dynstat_g_vvel_max        =   0.0000000000000E+00
(PID.TID 0000.0001) %MON g__dynstat_g_vvel_min        =   0.0000000000000E+00
(PID.TID 0000.0001) %MON g__dynstat_g_vvel_mean       =   0.0000000000000E+00
(PID.TID 0000.0001) %MON g__dynstat_g_vvel_sd         =   0.0000000000000E+00
(PID.TID 0000.0001) %MON g__dynstat_g_vvel_del2       =   0.0000000000000E+00
(PID.TID 0000.0001) %MON g__dynstat_g_wvel_max        =   0.0000000000000E+00
(PID.TID 0000.0001) %MON g__dynstat_g_wvel_min        =   0.0000000000000E+00
(PID.TID 0000.0001) %MON g__dynstat_g_wvel_mean       =   0.0000000000000E+00
(PID.TID 0000.0001) %MON g__dynstat_g_wvel_sd         =   0.0000000000000E+00
(PID.TID 0000.0001) %MON g__dynstat_g_wvel_del2       =   0.0000000000000E+00
(PID.TID 0000.0001) %MON g__dynstat_g_theta_max       =   0.0000000000000E+00
(PID.TID 0000.0001) %MON g__dynstat_g_theta_min       =   0.0000000000000E+00
(PID.TID 0000.0001) %MON g__dynstat_g_theta_mean      =   0.0000000000000E+00
(PID.TID 0000.0001) %MON g__dynstat_g_theta_sd        =   0.0000000000000E+00
(PID.TID 0000.0001) %MON g__dynstat_g_theta_del2      =   0.0000000000000E+00
(PID.TID 0000.0001) %MON g__dynstat_g_salt_max        =   0.0000000000000E+00
(PID.TID 0000.0001) %MON g__dynstat_g_salt_min        =   0.0000000000000E+00
(PID.TID 0000.0001) %MON g__dynstat_g_salt_mean       =   0.0000000000000E+00
(PID.TID 0000.0001) %MON g__dynstat_g_salt_sd         =   0.0000000000000E+00
(PID.TID 0000.0001) %MON g__dynstat_g_salt_del2       =   0.0000000000000E+00
(PID.TID 0000.0001) %MON g__dynstat_g_sst_max         =   0.0000000000000E+00
(PID.TID 0000.0001) %MON g__dynstat_g_sst_min         =   0.0000000000000E+00
(PID.TID 0000.0001) %MON g__dynstat_g_sst_mean        =   0.0000000000000E+00
(PID.TID 0000.0001) %MON g__dynstat_g_sst_sd          =   0.0000000000000E+00
(PID.TID 0000.0001) %MON g__dynstat_g_sst_del2        =   0.0000000000000E+00
(PID.TID 0000.0001) %MON g__dynstat_g_sss_max         =   0.0000000000000E+00
(PID.TID 0000.0001) %MON g__dynstat_g_sss_min         =   0.0000000000000E+00
(PID.TID 0000.0001) %MON g__dynstat_g_sss_mean        =   0.0000000000000E+00
(PID.TID 0000.0001) %MON g__dynstat_g_sss_sd          =   0.0000000000000E+00
(PID.TID 0000.0001) %MON g__dynstat_g_sss_del2        =   0.0000000000000E+00
(PID.TID 0000.0001) %MON g__extforcing_g_qnet_max     =   0.0000000000000E+00
(PID.TID 0000.0001) %MON g__extforcing_g_qnet_min     =   0.0000000000000E+00
(PID.TID 0000.0001) %MON g__extforcing_g_qnet_mean    =   0.0000000000000E+00
(PID.TID 0000.0001) %MON g__extforcing_g_qnet_sd      =   0.0000000000000E+00
(PID.TID 0000.0001) %MON g__extforcing_g_qnet_del2    =   0.0000000000000E+00
(PID.TID 0000.0001) %MON g__extforcing_g_empmr_max    =   0.0000000000000E+00
(PID.TID 0000.0001) %MON g__extforcing_g_empmr_min    =   0.0000000000000E+00
(PID.TID 0000.0001) %MON g__extforcing_g_empmr_mean   =   0.0000000000000E+00
(PID.TID 0000.0001) %MON g__extforcing_g_empmr_sd     =   0.0000000000000E+00
(PID.TID 0000.0001) %MON g__extforcing_g_empmr_del2   =   0.0000000000000E+00
(PID.TID 0000.0001) %MON g__extforcing_g_fu_max       =   0.0000000000000E+00
(PID.TID 0000.0001) %MON g__extforcing_g_fu_min       =   0.0000000000000E+00
(PID.TID 0000.0001) %MON g__extforcing_g_fu_mean      =   0.0000000000000E+00
(PID.TID 0000.0001) %MON g__extforcing_g_fu_sd        =   0.0000000000000E+00
(PID.TID 0000.0001) %MON g__extforcing_g_fu_del2      =   0.0000000000000E+00
(PID.TID 0000.0001) %MON g__extforcing_g_fv_max       =   0.0000000000000E+00
(PID.TID 0000.0001) %MON g__extforcing_g_fv_min       =   0.0000000000000E+00
(PID.TID 0000.0001) %MON g__extforcing_g_fv_mean      =   0.0000000000000E+00
(PID.TID 0000.0001) %MON g__extforcing_g_fv_sd        =   0.0000000000000E+00
(PID.TID 0000.0001) %MON g__extforcing_g_fv_del2      =   0.0000000000000E+00
(PID.TID 0000.0001) %MON g__g_vcfl_g_uvel_max         =   0.0000000000000E+00
(PID.TID 0000.0001) %MON g__g_vcfl_g_vvel_max         =   0.0000000000000E+00
(PID.TID 0000.0001) %MON g__g_vcfl_g_wvel_max         =   0.0000000000000E+00
(PID.TID 0000.0001) %MON g__g_vcfl_g_W_hf_max         =   0.0000000000000E+00
(PID.TID 0000.0001) // =======================================================
(PID.TID 0000.0001) // End MONITOR dynamic field statistics
(PID.TID 0000.0001) // =======================================================
 cg2d: Sum(rhs),rhsMax =   0.00000000000000E+00  0.00000000000000E+00
 cg2d: Sum(rhs),rhsMax =  -1.56610835411186E-12  9.11143504680528E+00
(PID.TID 0000.0001) // =======================================================
(PID.TID 0000.0001) // Begin MONITOR dynamic field statistics
(PID.TID 0000.0001) // =======================================================
(PID.TID 0000.0001) %MON g__time_tsnumber             =                    32
(PID.TID 0000.0001) %MON g__time_secondsf             =   1.3824000000000E+06
(PID.TID 0000.0001) %MON g__dynstat_g_eta_max         =   0.0000000000000E+00
(PID.TID 0000.0001) %MON g__dynstat_g_eta_min         =   0.0000000000000E+00
(PID.TID 0000.0001) %MON g__dynstat_g_eta_mean        =   0.0000000000000E+00
(PID.TID 0000.0001) %MON g__dynstat_g_eta_sd          =   0.0000000000000E+00
(PID.TID 0000.0001) %MON g__dynstat_g_eta_del2        =   0.0000000000000E+00
(PID.TID 0000.0001) %MON g__dynstat_g_uvel_max        =   0.0000000000000E+00
(PID.TID 0000.0001) %MON g__dynstat_g_uvel_min        =   0.0000000000000E+00
(PID.TID 0000.0001) %MON g__dynstat_g_uvel_mean       =   0.0000000000000E+00
(PID.TID 0000.0001) %MON g__dynstat_g_uvel_sd         =   0.0000000000000E+00
(PID.TID 0000.0001) %MON g__dynstat_g_uvel_del2       =   0.0000000000000E+00
(PID.TID 0000.0001) %MON g__dynstat_g_vvel_max        =   0.0000000000000E+00
(PID.TID 0000.0001) %MON g__dynstat_g_vvel_min        =   0.0000000000000E+00
(PID.TID 0000.0001) %MON g__dynstat_g_vvel_mean       =   0.0000000000000E+00
(PID.TID 0000.0001) %MON g__dynstat_g_vvel_sd         =   0.0000000000000E+00
(PID.TID 0000.0001) %MON g__dynstat_g_vvel_del2       =   0.0000000000000E+00
(PID.TID 0000.0001) %MON g__dynstat_g_wvel_max        =   0.0000000000000E+00
(PID.TID 0000.0001) %MON g__dynstat_g_wvel_min        =   0.0000000000000E+00
(PID.TID 0000.0001) %MON g__dynstat_g_wvel_mean       =   0.0000000000000E+00
(PID.TID 0000.0001) %MON g__dynstat_g_wvel_sd         =   0.0000000000000E+00
(PID.TID 0000.0001) %MON g__dynstat_g_wvel_del2       =   0.0000000000000E+00
(PID.TID 0000.0001) %MON g__dynstat_g_theta_max       =   0.0000000000000E+00
(PID.TID 0000.0001) %MON g__dynstat_g_theta_min       =   0.0000000000000E+00
(PID.TID 0000.0001) %MON g__dynstat_g_theta_mean      =   0.0000000000000E+00
(PID.TID 0000.0001) %MON g__dynstat_g_theta_sd        =   0.0000000000000E+00
(PID.TID 0000.0001) %MON g__dynstat_g_theta_del2      =   0.0000000000000E+00
(PID.TID 0000.0001) %MON g__dynstat_g_salt_max        =   0.0000000000000E+00
(PID.TID 0000.0001) %MON g__dynstat_g_salt_min        =   0.0000000000000E+00
(PID.TID 0000.0001) %MON g__dynstat_g_salt_mean       =   0.0000000000000E+00
(PID.TID 0000.0001) %MON g__dynstat_g_salt_sd         =   0.0000000000000E+00
(PID.TID 0000.0001) %MON g__dynstat_g_salt_del2       =   0.0000000000000E+00
(PID.TID 0000.0001) %MON g__dynstat_g_sst_max         =   0.0000000000000E+00
(PID.TID 0000.0001) %MON g__dynstat_g_sst_min         =   0.0000000000000E+00
(PID.TID 0000.0001) %MON g__dynstat_g_sst_mean        =   0.0000000000000E+00
(PID.TID 0000.0001) %MON g__dynstat_g_sst_sd          =   0.0000000000000E+00
(PID.TID 0000.0001) %MON g__dynstat_g_sst_del2        =   0.0000000000000E+00
(PID.TID 0000.0001) %MON g__dynstat_g_sss_max         =   0.0000000000000E+00
(PID.TID 0000.0001) %MON g__dynstat_g_sss_min         =   0.0000000000000E+00
(PID.TID 0000.0001) %MON g__dynstat_g_sss_mean        =   0.0000000000000E+00
(PID.TID 0000.0001) %MON g__dynstat_g_sss_sd          =   0.0000000000000E+00
(PID.TID 0000.0001) %MON g__dynstat_g_sss_del2        =   0.0000000000000E+00
(PID.TID 0000.0001) %MON g__extforcing_g_qnet_max     =   0.0000000000000E+00
(PID.TID 0000.0001) %MON g__extforcing_g_qnet_min     =   0.0000000000000E+00
(PID.TID 0000.0001) %MON g__extforcing_g_qnet_mean    =   0.0000000000000E+00
(PID.TID 0000.0001) %MON g__extforcing_g_qnet_sd      =   0.0000000000000E+00
(PID.TID 0000.0001) %MON g__extforcing_g_qnet_del2    =   0.0000000000000E+00
(PID.TID 0000.0001) %MON g__extforcing_g_empmr_max    =   0.0000000000000E+00
(PID.TID 0000.0001) %MON g__extforcing_g_empmr_min    =   0.0000000000000E+00
(PID.TID 0000.0001) %MON g__extforcing_g_empmr_mean   =   0.0000000000000E+00
(PID.TID 0000.0001) %MON g__extforcing_g_empmr_sd     =   0.0000000000000E+00
(PID.TID 0000.0001) %MON g__extforcing_g_empmr_del2   =   0.0000000000000E+00
(PID.TID 0000.0001) %MON g__extforcing_g_fu_max       =   0.0000000000000E+00
(PID.TID 0000.0001) %MON g__extforcing_g_fu_min       =   0.0000000000000E+00
(PID.TID 0000.0001) %MON g__extforcing_g_fu_mean      =   0.0000000000000E+00
(PID.TID 0000.0001) %MON g__extforcing_g_fu_sd        =   0.0000000000000E+00
(PID.TID 0000.0001) %MON g__extforcing_g_fu_del2      =   0.0000000000000E+00
(PID.TID 0000.0001) %MON g__extforcing_g_fv_max       =   0.0000000000000E+00
(PID.TID 0000.0001) %MON g__extforcing_g_fv_min       =   0.0000000000000E+00
(PID.TID 0000.0001) %MON g__extforcing_g_fv_mean      =   0.0000000000000E+00
(PID.TID 0000.0001) %MON g__extforcing_g_fv_sd        =   0.0000000000000E+00
(PID.TID 0000.0001) %MON g__extforcing_g_fv_del2      =   0.0000000000000E+00
(PID.TID 0000.0001) %MON g__g_vcfl_g_uvel_max         =   0.0000000000000E+00
(PID.TID 0000.0001) %MON g__g_vcfl_g_vvel_max         =   0.0000000000000E+00
(PID.TID 0000.0001) %MON g__g_vcfl_g_wvel_max         =   0.0000000000000E+00
(PID.TID 0000.0001) %MON g__g_vcfl_g_W_hf_max         =   0.0000000000000E+00
(PID.TID 0000.0001) // =======================================================
(PID.TID 0000.0001) // End MONITOR dynamic field statistics
(PID.TID 0000.0001) // =======================================================
 cg2d: Sum(rhs),rhsMax =   0.00000000000000E+00  0.00000000000000E+00
 cg2d: Sum(rhs),rhsMax =  -1.63791202822949E-12  9.23484312292801E+00
(PID.TID 0000.0001) // =======================================================
(PID.TID 0000.0001) // Begin MONITOR dynamic field statistics
(PID.TID 0000.0001) // =======================================================
(PID.TID 0000.0001) %MON g__time_tsnumber             =                    33
(PID.TID 0000.0001) %MON g__time_secondsf             =   1.4256000000000E+06
(PID.TID 0000.0001) %MON g__dynstat_g_eta_max         =   0.0000000000000E+00
(PID.TID 0000.0001) %MON g__dynstat_g_eta_min         =   0.0000000000000E+00
(PID.TID 0000.0001) %MON g__dynstat_g_eta_mean        =   0.0000000000000E+00
(PID.TID 0000.0001) %MON g__dynstat_g_eta_sd          =   0.0000000000000E+00
(PID.TID 0000.0001) %MON g__dynstat_g_eta_del2        =   0.0000000000000E+00
(PID.TID 0000.0001) %MON g__dynstat_g_uvel_max        =   0.0000000000000E+00
(PID.TID 0000.0001) %MON g__dynstat_g_uvel_min        =   0.0000000000000E+00
(PID.TID 0000.0001) %MON g__dynstat_g_uvel_mean       =   0.0000000000000E+00
(PID.TID 0000.0001) %MON g__dynstat_g_uvel_sd         =   0.0000000000000E+00
(PID.TID 0000.0001) %MON g__dynstat_g_uvel_del2       =   0.0000000000000E+00
(PID.TID 0000.0001) %MON g__dynstat_g_vvel_max        =   0.0000000000000E+00
(PID.TID 0000.0001) %MON g__dynstat_g_vvel_min        =   0.0000000000000E+00
(PID.TID 0000.0001) %MON g__dynstat_g_vvel_mean       =   0.0000000000000E+00
(PID.TID 0000.0001) %MON g__dynstat_g_vvel_sd         =   0.0000000000000E+00
(PID.TID 0000.0001) %MON g__dynstat_g_vvel_del2       =   0.0000000000000E+00
(PID.TID 0000.0001) %MON g__dynstat_g_wvel_max        =   0.0000000000000E+00
(PID.TID 0000.0001) %MON g__dynstat_g_wvel_min        =   0.0000000000000E+00
(PID.TID 0000.0001) %MON g__dynstat_g_wvel_mean       =   0.0000000000000E+00
(PID.TID 0000.0001) %MON g__dynstat_g_wvel_sd         =   0.0000000000000E+00
(PID.TID 0000.0001) %MON g__dynstat_g_wvel_del2       =   0.0000000000000E+00
(PID.TID 0000.0001) %MON g__dynstat_g_theta_max       =   0.0000000000000E+00
(PID.TID 0000.0001) %MON g__dynstat_g_theta_min       =   0.0000000000000E+00
(PID.TID 0000.0001) %MON g__dynstat_g_theta_mean      =   0.0000000000000E+00
(PID.TID 0000.0001) %MON g__dynstat_g_theta_sd        =   0.0000000000000E+00
(PID.TID 0000.0001) %MON g__dynstat_g_theta_del2      =   0.0000000000000E+00
(PID.TID 0000.0001) %MON g__dynstat_g_salt_max        =   0.0000000000000E+00
(PID.TID 0000.0001) %MON g__dynstat_g_salt_min        =   0.0000000000000E+00
(PID.TID 0000.0001) %MON g__dynstat_g_salt_mean       =   0.0000000000000E+00
(PID.TID 0000.0001) %MON g__dynstat_g_salt_sd         =   0.0000000000000E+00
(PID.TID 0000.0001) %MON g__dynstat_g_salt_del2       =   0.0000000000000E+00
(PID.TID 0000.0001) %MON g__dynstat_g_sst_max         =   0.0000000000000E+00
(PID.TID 0000.0001) %MON g__dynstat_g_sst_min         =   0.0000000000000E+00
(PID.TID 0000.0001) %MON g__dynstat_g_sst_mean        =   0.0000000000000E+00
(PID.TID 0000.0001) %MON g__dynstat_g_sst_sd          =   0.0000000000000E+00
(PID.TID 0000.0001) %MON g__dynstat_g_sst_del2        =   0.0000000000000E+00
(PID.TID 0000.0001) %MON g__dynstat_g_sss_max         =   0.0000000000000E+00
(PID.TID 0000.0001) %MON g__dynstat_g_sss_min         =   0.0000000000000E+00
(PID.TID 0000.0001) %MON g__dynstat_g_sss_mean        =   0.0000000000000E+00
(PID.TID 0000.0001) %MON g__dynstat_g_sss_sd          =   0.0000000000000E+00
(PID.TID 0000.0001) %MON g__dynstat_g_sss_del2        =   0.0000000000000E+00
(PID.TID 0000.0001) %MON g__extforcing_g_qnet_max     =   0.0000000000000E+00
(PID.TID 0000.0001) %MON g__extforcing_g_qnet_min     =   0.0000000000000E+00
(PID.TID 0000.0001) %MON g__extforcing_g_qnet_mean    =   0.0000000000000E+00
(PID.TID 0000.0001) %MON g__extforcing_g_qnet_sd      =   0.0000000000000E+00
(PID.TID 0000.0001) %MON g__extforcing_g_qnet_del2    =   0.0000000000000E+00
(PID.TID 0000.0001) %MON g__extforcing_g_empmr_max    =   0.0000000000000E+00
(PID.TID 0000.0001) %MON g__extforcing_g_empmr_min    =   0.0000000000000E+00
(PID.TID 0000.0001) %MON g__extforcing_g_empmr_mean   =   0.0000000000000E+00
(PID.TID 0000.0001) %MON g__extforcing_g_empmr_sd     =   0.0000000000000E+00
(PID.TID 0000.0001) %MON g__extforcing_g_empmr_del2   =   0.0000000000000E+00
(PID.TID 0000.0001) %MON g__extforcing_g_fu_max       =   0.0000000000000E+00
(PID.TID 0000.0001) %MON g__extforcing_g_fu_min       =   0.0000000000000E+00
(PID.TID 0000.0001) %MON g__extforcing_g_fu_mean      =   0.0000000000000E+00
(PID.TID 0000.0001) %MON g__extforcing_g_fu_sd        =   0.0000000000000E+00
(PID.TID 0000.0001) %MON g__extforcing_g_fu_del2      =   0.0000000000000E+00
(PID.TID 0000.0001) %MON g__extforcing_g_fv_max       =   0.0000000000000E+00
(PID.TID 0000.0001) %MON g__extforcing_g_fv_min       =   0.0000000000000E+00
(PID.TID 0000.0001) %MON g__extforcing_g_fv_mean      =   0.0000000000000E+00
(PID.TID 0000.0001) %MON g__extforcing_g_fv_sd        =   0.0000000000000E+00
(PID.TID 0000.0001) %MON g__extforcing_g_fv_del2      =   0.0000000000000E+00
(PID.TID 0000.0001) %MON g__g_vcfl_g_uvel_max         =   0.0000000000000E+00
(PID.TID 0000.0001) %MON g__g_vcfl_g_vvel_max         =   0.0000000000000E+00
(PID.TID 0000.0001) %MON g__g_vcfl_g_wvel_max         =   0.0000000000000E+00
(PID.TID 0000.0001) %MON g__g_vcfl_g_W_hf_max         =   0.0000000000000E+00
(PID.TID 0000.0001) // =======================================================
(PID.TID 0000.0001) // End MONITOR dynamic field statistics
(PID.TID 0000.0001) // =======================================================
 cg2d: Sum(rhs),rhsMax =   0.00000000000000E+00  0.00000000000000E+00
 cg2d: Sum(rhs),rhsMax =  -1.47438311559611E-12  9.27184087685190E+00
(PID.TID 0000.0001) // =======================================================
(PID.TID 0000.0001) // Begin MONITOR dynamic field statistics
(PID.TID 0000.0001) // =======================================================
(PID.TID 0000.0001) %MON g__time_tsnumber             =                    34
(PID.TID 0000.0001) %MON g__time_secondsf             =   1.4688000000000E+06
(PID.TID 0000.0001) %MON g__dynstat_g_eta_max         =   0.0000000000000E+00
(PID.TID 0000.0001) %MON g__dynstat_g_eta_min         =   0.0000000000000E+00
(PID.TID 0000.0001) %MON g__dynstat_g_eta_mean        =   0.0000000000000E+00
(PID.TID 0000.0001) %MON g__dynstat_g_eta_sd          =   0.0000000000000E+00
(PID.TID 0000.0001) %MON g__dynstat_g_eta_del2        =   0.0000000000000E+00
(PID.TID 0000.0001) %MON g__dynstat_g_uvel_max        =   0.0000000000000E+00
(PID.TID 0000.0001) %MON g__dynstat_g_uvel_min        =   0.0000000000000E+00
(PID.TID 0000.0001) %MON g__dynstat_g_uvel_mean       =   0.0000000000000E+00
(PID.TID 0000.0001) %MON g__dynstat_g_uvel_sd         =   0.0000000000000E+00
(PID.TID 0000.0001) %MON g__dynstat_g_uvel_del2       =   0.0000000000000E+00
(PID.TID 0000.0001) %MON g__dynstat_g_vvel_max        =   0.0000000000000E+00
(PID.TID 0000.0001) %MON g__dynstat_g_vvel_min        =   0.0000000000000E+00
(PID.TID 0000.0001) %MON g__dynstat_g_vvel_mean       =   0.0000000000000E+00
(PID.TID 0000.0001) %MON g__dynstat_g_vvel_sd         =   0.0000000000000E+00
(PID.TID 0000.0001) %MON g__dynstat_g_vvel_del2       =   0.0000000000000E+00
(PID.TID 0000.0001) %MON g__dynstat_g_wvel_max        =   0.0000000000000E+00
(PID.TID 0000.0001) %MON g__dynstat_g_wvel_min        =   0.0000000000000E+00
(PID.TID 0000.0001) %MON g__dynstat_g_wvel_mean       =   0.0000000000000E+00
(PID.TID 0000.0001) %MON g__dynstat_g_wvel_sd         =   0.0000000000000E+00
(PID.TID 0000.0001) %MON g__dynstat_g_wvel_del2       =   0.0000000000000E+00
(PID.TID 0000.0001) %MON g__dynstat_g_theta_max       =   0.0000000000000E+00
(PID.TID 0000.0001) %MON g__dynstat_g_theta_min       =   0.0000000000000E+00
(PID.TID 0000.0001) %MON g__dynstat_g_theta_mean      =   0.0000000000000E+00
(PID.TID 0000.0001) %MON g__dynstat_g_theta_sd        =   0.0000000000000E+00
(PID.TID 0000.0001) %MON g__dynstat_g_theta_del2      =   0.0000000000000E+00
(PID.TID 0000.0001) %MON g__dynstat_g_salt_max        =   0.0000000000000E+00
(PID.TID 0000.0001) %MON g__dynstat_g_salt_min        =   0.0000000000000E+00
(PID.TID 0000.0001) %MON g__dynstat_g_salt_mean       =   0.0000000000000E+00
(PID.TID 0000.0001) %MON g__dynstat_g_salt_sd         =   0.0000000000000E+00
(PID.TID 0000.0001) %MON g__dynstat_g_salt_del2       =   0.0000000000000E+00
(PID.TID 0000.0001) %MON g__dynstat_g_sst_max         =   0.0000000000000E+00
(PID.TID 0000.0001) %MON g__dynstat_g_sst_min         =   0.0000000000000E+00
(PID.TID 0000.0001) %MON g__dynstat_g_sst_mean        =   0.0000000000000E+00
(PID.TID 0000.0001) %MON g__dynstat_g_sst_sd          =   0.0000000000000E+00
(PID.TID 0000.0001) %MON g__dynstat_g_sst_del2        =   0.0000000000000E+00
(PID.TID 0000.0001) %MON g__dynstat_g_sss_max         =   0.0000000000000E+00
(PID.TID 0000.0001) %MON g__dynstat_g_sss_min         =   0.0000000000000E+00
(PID.TID 0000.0001) %MON g__dynstat_g_sss_mean        =   0.0000000000000E+00
(PID.TID 0000.0001) %MON g__dynstat_g_sss_sd          =   0.0000000000000E+00
(PID.TID 0000.0001) %MON g__dynstat_g_sss_del2        =   0.0000000000000E+00
(PID.TID 0000.0001) %MON g__extforcing_g_qnet_max     =   0.0000000000000E+00
(PID.TID 0000.0001) %MON g__extforcing_g_qnet_min     =   0.0000000000000E+00
(PID.TID 0000.0001) %MON g__extforcing_g_qnet_mean    =   0.0000000000000E+00
(PID.TID 0000.0001) %MON g__extforcing_g_qnet_sd      =   0.0000000000000E+00
(PID.TID 0000.0001) %MON g__extforcing_g_qnet_del2    =   0.0000000000000E+00
(PID.TID 0000.0001) %MON g__extforcing_g_empmr_max    =   0.0000000000000E+00
(PID.TID 0000.0001) %MON g__extforcing_g_empmr_min    =   0.0000000000000E+00
(PID.TID 0000.0001) %MON g__extforcing_g_empmr_mean   =   0.0000000000000E+00
(PID.TID 0000.0001) %MON g__extforcing_g_empmr_sd     =   0.0000000000000E+00
(PID.TID 0000.0001) %MON g__extforcing_g_empmr_del2   =   0.0000000000000E+00
(PID.TID 0000.0001) %MON g__extforcing_g_fu_max       =   0.0000000000000E+00
(PID.TID 0000.0001) %MON g__extforcing_g_fu_min       =   0.0000000000000E+00
(PID.TID 0000.0001) %MON g__extforcing_g_fu_mean      =   0.0000000000000E+00
(PID.TID 0000.0001) %MON g__extforcing_g_fu_sd        =   0.0000000000000E+00
(PID.TID 0000.0001) %MON g__extforcing_g_fu_del2      =   0.0000000000000E+00
(PID.TID 0000.0001) %MON g__extforcing_g_fv_max       =   0.0000000000000E+00
(PID.TID 0000.0001) %MON g__extforcing_g_fv_min       =   0.0000000000000E+00
(PID.TID 0000.0001) %MON g__extforcing_g_fv_mean      =   0.0000000000000E+00
(PID.TID 0000.0001) %MON g__extforcing_g_fv_sd        =   0.0000000000000E+00
(PID.TID 0000.0001) %MON g__extforcing_g_fv_del2      =   0.0000000000000E+00
(PID.TID 0000.0001) %MON g__g_vcfl_g_uvel_max         =   0.0000000000000E+00
(PID.TID 0000.0001) %MON g__g_vcfl_g_vvel_max         =   0.0000000000000E+00
(PID.TID 0000.0001) %MON g__g_vcfl_g_wvel_max         =   0.0000000000000E+00
(PID.TID 0000.0001) %MON g__g_vcfl_g_W_hf_max         =   0.0000000000000E+00
(PID.TID 0000.0001) // =======================================================
(PID.TID 0000.0001) // End MONITOR dynamic field statistics
(PID.TID 0000.0001) // =======================================================
 cg2d: Sum(rhs),rhsMax =   0.00000000000000E+00  0.00000000000000E+00
 cg2d: Sum(rhs),rhsMax =  -1.16397169680482E-12  9.21972070819474E+00
(PID.TID 0000.0001) // =======================================================
(PID.TID 0000.0001) // Begin MONITOR dynamic field statistics
(PID.TID 0000.0001) // =======================================================
(PID.TID 0000.0001) %MON g__time_tsnumber             =                    35
(PID.TID 0000.0001) %MON g__time_secondsf             =   1.5120000000000E+06
(PID.TID 0000.0001) %MON g__dynstat_g_eta_max         =   0.0000000000000E+00
(PID.TID 0000.0001) %MON g__dynstat_g_eta_min         =   0.0000000000000E+00
(PID.TID 0000.0001) %MON g__dynstat_g_eta_mean        =   0.0000000000000E+00
(PID.TID 0000.0001) %MON g__dynstat_g_eta_sd          =   0.0000000000000E+00
(PID.TID 0000.0001) %MON g__dynstat_g_eta_del2        =   0.0000000000000E+00
(PID.TID 0000.0001) %MON g__dynstat_g_uvel_max        =   0.0000000000000E+00
(PID.TID 0000.0001) %MON g__dynstat_g_uvel_min        =   0.0000000000000E+00
(PID.TID 0000.0001) %MON g__dynstat_g_uvel_mean       =   0.0000000000000E+00
(PID.TID 0000.0001) %MON g__dynstat_g_uvel_sd         =   0.0000000000000E+00
(PID.TID 0000.0001) %MON g__dynstat_g_uvel_del2       =   0.0000000000000E+00
(PID.TID 0000.0001) %MON g__dynstat_g_vvel_max        =   0.0000000000000E+00
(PID.TID 0000.0001) %MON g__dynstat_g_vvel_min        =   0.0000000000000E+00
(PID.TID 0000.0001) %MON g__dynstat_g_vvel_mean       =   0.0000000000000E+00
(PID.TID 0000.0001) %MON g__dynstat_g_vvel_sd         =   0.0000000000000E+00
(PID.TID 0000.0001) %MON g__dynstat_g_vvel_del2       =   0.0000000000000E+00
(PID.TID 0000.0001) %MON g__dynstat_g_wvel_max        =   0.0000000000000E+00
(PID.TID 0000.0001) %MON g__dynstat_g_wvel_min        =   0.0000000000000E+00
(PID.TID 0000.0001) %MON g__dynstat_g_wvel_mean       =   0.0000000000000E+00
(PID.TID 0000.0001) %MON g__dynstat_g_wvel_sd         =   0.0000000000000E+00
(PID.TID 0000.0001) %MON g__dynstat_g_wvel_del2       =   0.0000000000000E+00
(PID.TID 0000.0001) %MON g__dynstat_g_theta_max       =   0.0000000000000E+00
(PID.TID 0000.0001) %MON g__dynstat_g_theta_min       =   0.0000000000000E+00
(PID.TID 0000.0001) %MON g__dynstat_g_theta_mean      =   0.0000000000000E+00
(PID.TID 0000.0001) %MON g__dynstat_g_theta_sd        =   0.0000000000000E+00
(PID.TID 0000.0001) %MON g__dynstat_g_theta_del2      =   0.0000000000000E+00
(PID.TID 0000.0001) %MON g__dynstat_g_salt_max        =   0.0000000000000E+00
(PID.TID 0000.0001) %MON g__dynstat_g_salt_min        =   0.0000000000000E+00
(PID.TID 0000.0001) %MON g__dynstat_g_salt_mean       =   0.0000000000000E+00
(PID.TID 0000.0001) %MON g__dynstat_g_salt_sd         =   0.0000000000000E+00
(PID.TID 0000.0001) %MON g__dynstat_g_salt_del2       =   0.0000000000000E+00
(PID.TID 0000.0001) %MON g__dynstat_g_sst_max         =   0.0000000000000E+00
(PID.TID 0000.0001) %MON g__dynstat_g_sst_min         =   0.0000000000000E+00
(PID.TID 0000.0001) %MON g__dynstat_g_sst_mean        =   0.0000000000000E+00
(PID.TID 0000.0001) %MON g__dynstat_g_sst_sd          =   0.0000000000000E+00
(PID.TID 0000.0001) %MON g__dynstat_g_sst_del2        =   0.0000000000000E+00
(PID.TID 0000.0001) %MON g__dynstat_g_sss_max         =   0.0000000000000E+00
(PID.TID 0000.0001) %MON g__dynstat_g_sss_min         =   0.0000000000000E+00
(PID.TID 0000.0001) %MON g__dynstat_g_sss_mean        =   0.0000000000000E+00
(PID.TID 0000.0001) %MON g__dynstat_g_sss_sd          =   0.0000000000000E+00
(PID.TID 0000.0001) %MON g__dynstat_g_sss_del2        =   0.0000000000000E+00
(PID.TID 0000.0001) %MON g__extforcing_g_qnet_max     =   0.0000000000000E+00
(PID.TID 0000.0001) %MON g__extforcing_g_qnet_min     =   0.0000000000000E+00
(PID.TID 0000.0001) %MON g__extforcing_g_qnet_mean    =   0.0000000000000E+00
(PID.TID 0000.0001) %MON g__extforcing_g_qnet_sd      =   0.0000000000000E+00
(PID.TID 0000.0001) %MON g__extforcing_g_qnet_del2    =   0.0000000000000E+00
(PID.TID 0000.0001) %MON g__extforcing_g_empmr_max    =   0.0000000000000E+00
(PID.TID 0000.0001) %MON g__extforcing_g_empmr_min    =   0.0000000000000E+00
(PID.TID 0000.0001) %MON g__extforcing_g_empmr_mean   =   0.0000000000000E+00
(PID.TID 0000.0001) %MON g__extforcing_g_empmr_sd     =   0.0000000000000E+00
(PID.TID 0000.0001) %MON g__extforcing_g_empmr_del2   =   0.0000000000000E+00
(PID.TID 0000.0001) %MON g__extforcing_g_fu_max       =   0.0000000000000E+00
(PID.TID 0000.0001) %MON g__extforcing_g_fu_min       =   0.0000000000000E+00
(PID.TID 0000.0001) %MON g__extforcing_g_fu_mean      =   0.0000000000000E+00
(PID.TID 0000.0001) %MON g__extforcing_g_fu_sd        =   0.0000000000000E+00
(PID.TID 0000.0001) %MON g__extforcing_g_fu_del2      =   0.0000000000000E+00
(PID.TID 0000.0001) %MON g__extforcing_g_fv_max       =   0.0000000000000E+00
(PID.TID 0000.0001) %MON g__extforcing_g_fv_min       =   0.0000000000000E+00
(PID.TID 0000.0001) %MON g__extforcing_g_fv_mean      =   0.0000000000000E+00
(PID.TID 0000.0001) %MON g__extforcing_g_fv_sd        =   0.0000000000000E+00
(PID.TID 0000.0001) %MON g__extforcing_g_fv_del2      =   0.0000000000000E+00
(PID.TID 0000.0001) %MON g__g_vcfl_g_uvel_max         =   0.0000000000000E+00
(PID.TID 0000.0001) %MON g__g_vcfl_g_vvel_max         =   0.0000000000000E+00
(PID.TID 0000.0001) %MON g__g_vcfl_g_wvel_max         =   0.0000000000000E+00
(PID.TID 0000.0001) %MON g__g_vcfl_g_W_hf_max         =   0.0000000000000E+00
(PID.TID 0000.0001) // =======================================================
(PID.TID 0000.0001) // End MONITOR dynamic field statistics
(PID.TID 0000.0001) // =======================================================
 cg2d: Sum(rhs),rhsMax =   0.00000000000000E+00  0.00000000000000E+00
 cg2d: Sum(rhs),rhsMax =  -1.27080290734938E-12  9.07797514894403E+00
(PID.TID 0000.0001) // =======================================================
(PID.TID 0000.0001) // Begin MONITOR dynamic field statistics
(PID.TID 0000.0001) // =======================================================
(PID.TID 0000.0001) %MON g__time_tsnumber             =                    36
(PID.TID 0000.0001) %MON g__time_secondsf             =   1.5552000000000E+06
(PID.TID 0000.0001) %MON g__dynstat_g_eta_max         =   0.0000000000000E+00
(PID.TID 0000.0001) %MON g__dynstat_g_eta_min         =   0.0000000000000E+00
(PID.TID 0000.0001) %MON g__dynstat_g_eta_mean        =   0.0000000000000E+00
(PID.TID 0000.0001) %MON g__dynstat_g_eta_sd          =   0.0000000000000E+00
(PID.TID 0000.0001) %MON g__dynstat_g_eta_del2        =   0.0000000000000E+00
(PID.TID 0000.0001) %MON g__dynstat_g_uvel_max        =   0.0000000000000E+00
(PID.TID 0000.0001) %MON g__dynstat_g_uvel_min        =   0.0000000000000E+00
(PID.TID 0000.0001) %MON g__dynstat_g_uvel_mean       =   0.0000000000000E+00
(PID.TID 0000.0001) %MON g__dynstat_g_uvel_sd         =   0.0000000000000E+00
(PID.TID 0000.0001) %MON g__dynstat_g_uvel_del2       =   0.0000000000000E+00
(PID.TID 0000.0001) %MON g__dynstat_g_vvel_max        =   0.0000000000000E+00
(PID.TID 0000.0001) %MON g__dynstat_g_vvel_min        =   0.0000000000000E+00
(PID.TID 0000.0001) %MON g__dynstat_g_vvel_mean       =   0.0000000000000E+00
(PID.TID 0000.0001) %MON g__dynstat_g_vvel_sd         =   0.0000000000000E+00
(PID.TID 0000.0001) %MON g__dynstat_g_vvel_del2       =   0.0000000000000E+00
(PID.TID 0000.0001) %MON g__dynstat_g_wvel_max        =   0.0000000000000E+00
(PID.TID 0000.0001) %MON g__dynstat_g_wvel_min        =   0.0000000000000E+00
(PID.TID 0000.0001) %MON g__dynstat_g_wvel_mean       =   0.0000000000000E+00
(PID.TID 0000.0001) %MON g__dynstat_g_wvel_sd         =   0.0000000000000E+00
(PID.TID 0000.0001) %MON g__dynstat_g_wvel_del2       =   0.0000000000000E+00
(PID.TID 0000.0001) %MON g__dynstat_g_theta_max       =   0.0000000000000E+00
(PID.TID 0000.0001) %MON g__dynstat_g_theta_min       =   0.0000000000000E+00
(PID.TID 0000.0001) %MON g__dynstat_g_theta_mean      =   0.0000000000000E+00
(PID.TID 0000.0001) %MON g__dynstat_g_theta_sd        =   0.0000000000000E+00
(PID.TID 0000.0001) %MON g__dynstat_g_theta_del2      =   0.0000000000000E+00
(PID.TID 0000.0001) %MON g__dynstat_g_salt_max        =   0.0000000000000E+00
(PID.TID 0000.0001) %MON g__dynstat_g_salt_min        =   0.0000000000000E+00
(PID.TID 0000.0001) %MON g__dynstat_g_salt_mean       =   0.0000000000000E+00
(PID.TID 0000.0001) %MON g__dynstat_g_salt_sd         =   0.0000000000000E+00
(PID.TID 0000.0001) %MON g__dynstat_g_salt_del2       =   0.0000000000000E+00
(PID.TID 0000.0001) %MON g__dynstat_g_sst_max         =   0.0000000000000E+00
(PID.TID 0000.0001) %MON g__dynstat_g_sst_min         =   0.0000000000000E+00
(PID.TID 0000.0001) %MON g__dynstat_g_sst_mean        =   0.0000000000000E+00
(PID.TID 0000.0001) %MON g__dynstat_g_sst_sd          =   0.0000000000000E+00
(PID.TID 0000.0001) %MON g__dynstat_g_sst_del2        =   0.0000000000000E+00
(PID.TID 0000.0001) %MON g__dynstat_g_sss_max         =   0.0000000000000E+00
(PID.TID 0000.0001) %MON g__dynstat_g_sss_min         =   0.0000000000000E+00
(PID.TID 0000.0001) %MON g__dynstat_g_sss_mean        =   0.0000000000000E+00
(PID.TID 0000.0001) %MON g__dynstat_g_sss_sd          =   0.0000000000000E+00
(PID.TID 0000.0001) %MON g__dynstat_g_sss_del2        =   0.0000000000000E+00
(PID.TID 0000.0001) %MON g__extforcing_g_qnet_max     =   0.0000000000000E+00
(PID.TID 0000.0001) %MON g__extforcing_g_qnet_min     =   0.0000000000000E+00
(PID.TID 0000.0001) %MON g__extforcing_g_qnet_mean    =   0.0000000000000E+00
(PID.TID 0000.0001) %MON g__extforcing_g_qnet_sd      =   0.0000000000000E+00
(PID.TID 0000.0001) %MON g__extforcing_g_qnet_del2    =   0.0000000000000E+00
(PID.TID 0000.0001) %MON g__extforcing_g_empmr_max    =   0.0000000000000E+00
(PID.TID 0000.0001) %MON g__extforcing_g_empmr_min    =   0.0000000000000E+00
(PID.TID 0000.0001) %MON g__extforcing_g_empmr_mean   =   0.0000000000000E+00
(PID.TID 0000.0001) %MON g__extforcing_g_empmr_sd     =   0.0000000000000E+00
(PID.TID 0000.0001) %MON g__extforcing_g_empmr_del2   =   0.0000000000000E+00
(PID.TID 0000.0001) %MON g__extforcing_g_fu_max       =   0.0000000000000E+00
(PID.TID 0000.0001) %MON g__extforcing_g_fu_min       =   0.0000000000000E+00
(PID.TID 0000.0001) %MON g__extforcing_g_fu_mean      =   0.0000000000000E+00
(PID.TID 0000.0001) %MON g__extforcing_g_fu_sd        =   0.0000000000000E+00
(PID.TID 0000.0001) %MON g__extforcing_g_fu_del2      =   0.0000000000000E+00
(PID.TID 0000.0001) %MON g__extforcing_g_fv_max       =   0.0000000000000E+00
(PID.TID 0000.0001) %MON g__extforcing_g_fv_min       =   0.0000000000000E+00
(PID.TID 0000.0001) %MON g__extforcing_g_fv_mean      =   0.0000000000000E+00
(PID.TID 0000.0001) %MON g__extforcing_g_fv_sd        =   0.0000000000000E+00
(PID.TID 0000.0001) %MON g__extforcing_g_fv_del2      =   0.0000000000000E+00
(PID.TID 0000.0001) %MON g__g_vcfl_g_uvel_max         =   0.0000000000000E+00
(PID.TID 0000.0001) %MON g__g_vcfl_g_vvel_max         =   0.0000000000000E+00
(PID.TID 0000.0001) %MON g__g_vcfl_g_wvel_max         =   0.0000000000000E+00
(PID.TID 0000.0001) %MON g__g_vcfl_g_W_hf_max         =   0.0000000000000E+00
(PID.TID 0000.0001) // =======================================================
(PID.TID 0000.0001) // End MONITOR dynamic field statistics
(PID.TID 0000.0001) // =======================================================
 cg2d: Sum(rhs),rhsMax =   0.00000000000000E+00  0.00000000000000E+00
 cg2d: Sum(rhs),rhsMax =  -1.30646882201546E-12  8.84823931929403E+00
(PID.TID 0000.0001) // =======================================================
(PID.TID 0000.0001) // Begin MONITOR dynamic field statistics
(PID.TID 0000.0001) // =======================================================
(PID.TID 0000.0001) %MON g__time_tsnumber             =                    37
(PID.TID 0000.0001) %MON g__time_secondsf             =   1.5984000000000E+06
(PID.TID 0000.0001) %MON g__dynstat_g_eta_max         =   0.0000000000000E+00
(PID.TID 0000.0001) %MON g__dynstat_g_eta_min         =   0.0000000000000E+00
(PID.TID 0000.0001) %MON g__dynstat_g_eta_mean        =   0.0000000000000E+00
(PID.TID 0000.0001) %MON g__dynstat_g_eta_sd          =   0.0000000000000E+00
(PID.TID 0000.0001) %MON g__dynstat_g_eta_del2        =   0.0000000000000E+00
(PID.TID 0000.0001) %MON g__dynstat_g_uvel_max        =   0.0000000000000E+00
(PID.TID 0000.0001) %MON g__dynstat_g_uvel_min        =   0.0000000000000E+00
(PID.TID 0000.0001) %MON g__dynstat_g_uvel_mean       =   0.0000000000000E+00
(PID.TID 0000.0001) %MON g__dynstat_g_uvel_sd         =   0.0000000000000E+00
(PID.TID 0000.0001) %MON g__dynstat_g_uvel_del2       =   0.0000000000000E+00
(PID.TID 0000.0001) %MON g__dynstat_g_vvel_max        =   0.0000000000000E+00
(PID.TID 0000.0001) %MON g__dynstat_g_vvel_min        =   0.0000000000000E+00
(PID.TID 0000.0001) %MON g__dynstat_g_vvel_mean       =   0.0000000000000E+00
(PID.TID 0000.0001) %MON g__dynstat_g_vvel_sd         =   0.0000000000000E+00
(PID.TID 0000.0001) %MON g__dynstat_g_vvel_del2       =   0.0000000000000E+00
(PID.TID 0000.0001) %MON g__dynstat_g_wvel_max        =   0.0000000000000E+00
(PID.TID 0000.0001) %MON g__dynstat_g_wvel_min        =   0.0000000000000E+00
(PID.TID 0000.0001) %MON g__dynstat_g_wvel_mean       =   0.0000000000000E+00
(PID.TID 0000.0001) %MON g__dynstat_g_wvel_sd         =   0.0000000000000E+00
(PID.TID 0000.0001) %MON g__dynstat_g_wvel_del2       =   0.0000000000000E+00
(PID.TID 0000.0001) %MON g__dynstat_g_theta_max       =   0.0000000000000E+00
(PID.TID 0000.0001) %MON g__dynstat_g_theta_min       =   0.0000000000000E+00
(PID.TID 0000.0001) %MON g__dynstat_g_theta_mean      =   0.0000000000000E+00
(PID.TID 0000.0001) %MON g__dynstat_g_theta_sd        =   0.0000000000000E+00
(PID.TID 0000.0001) %MON g__dynstat_g_theta_del2      =   0.0000000000000E+00
(PID.TID 0000.0001) %MON g__dynstat_g_salt_max        =   0.0000000000000E+00
(PID.TID 0000.0001) %MON g__dynstat_g_salt_min        =   0.0000000000000E+00
(PID.TID 0000.0001) %MON g__dynstat_g_salt_mean       =   0.0000000000000E+00
(PID.TID 0000.0001) %MON g__dynstat_g_salt_sd         =   0.0000000000000E+00
(PID.TID 0000.0001) %MON g__dynstat_g_salt_del2       =   0.0000000000000E+00
(PID.TID 0000.0001) %MON g__dynstat_g_sst_max         =   0.0000000000000E+00
(PID.TID 0000.0001) %MON g__dynstat_g_sst_min         =   0.0000000000000E+00
(PID.TID 0000.0001) %MON g__dynstat_g_sst_mean        =   0.0000000000000E+00
(PID.TID 0000.0001) %MON g__dynstat_g_sst_sd          =   0.0000000000000E+00
(PID.TID 0000.0001) %MON g__dynstat_g_sst_del2        =   0.0000000000000E+00
(PID.TID 0000.0001) %MON g__dynstat_g_sss_max         =   0.0000000000000E+00
(PID.TID 0000.0001) %MON g__dynstat_g_sss_min         =   0.0000000000000E+00
(PID.TID 0000.0001) %MON g__dynstat_g_sss_mean        =   0.0000000000000E+00
(PID.TID 0000.0001) %MON g__dynstat_g_sss_sd          =   0.0000000000000E+00
(PID.TID 0000.0001) %MON g__dynstat_g_sss_del2        =   0.0000000000000E+00
(PID.TID 0000.0001) %MON g__extforcing_g_qnet_max     =   0.0000000000000E+00
(PID.TID 0000.0001) %MON g__extforcing_g_qnet_min     =   0.0000000000000E+00
(PID.TID 0000.0001) %MON g__extforcing_g_qnet_mean    =   0.0000000000000E+00
(PID.TID 0000.0001) %MON g__extforcing_g_qnet_sd      =   0.0000000000000E+00
(PID.TID 0000.0001) %MON g__extforcing_g_qnet_del2    =   0.0000000000000E+00
(PID.TID 0000.0001) %MON g__extforcing_g_empmr_max    =   0.0000000000000E+00
(PID.TID 0000.0001) %MON g__extforcing_g_empmr_min    =   0.0000000000000E+00
(PID.TID 0000.0001) %MON g__extforcing_g_empmr_mean   =   0.0000000000000E+00
(PID.TID 0000.0001) %MON g__extforcing_g_empmr_sd     =   0.0000000000000E+00
(PID.TID 0000.0001) %MON g__extforcing_g_empmr_del2   =   0.0000000000000E+00
(PID.TID 0000.0001) %MON g__extforcing_g_fu_max       =   0.0000000000000E+00
(PID.TID 0000.0001) %MON g__extforcing_g_fu_min       =   0.0000000000000E+00
(PID.TID 0000.0001) %MON g__extforcing_g_fu_mean      =   0.0000000000000E+00
(PID.TID 0000.0001) %MON g__extforcing_g_fu_sd        =   0.0000000000000E+00
(PID.TID 0000.0001) %MON g__extforcing_g_fu_del2      =   0.0000000000000E+00
(PID.TID 0000.0001) %MON g__extforcing_g_fv_max       =   0.0000000000000E+00
(PID.TID 0000.0001) %MON g__extforcing_g_fv_min       =   0.0000000000000E+00
(PID.TID 0000.0001) %MON g__extforcing_g_fv_mean      =   0.0000000000000E+00
(PID.TID 0000.0001) %MON g__extforcing_g_fv_sd        =   0.0000000000000E+00
(PID.TID 0000.0001) %MON g__extforcing_g_fv_del2      =   0.0000000000000E+00
(PID.TID 0000.0001) %MON g__g_vcfl_g_uvel_max         =   0.0000000000000E+00
(PID.TID 0000.0001) %MON g__g_vcfl_g_vvel_max         =   0.0000000000000E+00
(PID.TID 0000.0001) %MON g__g_vcfl_g_wvel_max         =   0.0000000000000E+00
(PID.TID 0000.0001) %MON g__g_vcfl_g_W_hf_max         =   0.0000000000000E+00
(PID.TID 0000.0001) // =======================================================
(PID.TID 0000.0001) // End MONITOR dynamic field statistics
(PID.TID 0000.0001) // =======================================================
 cg2d: Sum(rhs),rhsMax =   0.00000000000000E+00  0.00000000000000E+00
 cg2d: Sum(rhs),rhsMax =  -1.11412962189306E-12  8.53412765044119E+00
(PID.TID 0000.0001) // =======================================================
(PID.TID 0000.0001) // Begin MONITOR dynamic field statistics
(PID.TID 0000.0001) // =======================================================
(PID.TID 0000.0001) %MON g__time_tsnumber             =                    38
(PID.TID 0000.0001) %MON g__time_secondsf             =   1.6416000000000E+06
(PID.TID 0000.0001) %MON g__dynstat_g_eta_max         =   0.0000000000000E+00
(PID.TID 0000.0001) %MON g__dynstat_g_eta_min         =   0.0000000000000E+00
(PID.TID 0000.0001) %MON g__dynstat_g_eta_mean        =   0.0000000000000E+00
(PID.TID 0000.0001) %MON g__dynstat_g_eta_sd          =   0.0000000000000E+00
(PID.TID 0000.0001) %MON g__dynstat_g_eta_del2        =   0.0000000000000E+00
(PID.TID 0000.0001) %MON g__dynstat_g_uvel_max        =   0.0000000000000E+00
(PID.TID 0000.0001) %MON g__dynstat_g_uvel_min        =   0.0000000000000E+00
(PID.TID 0000.0001) %MON g__dynstat_g_uvel_mean       =   0.0000000000000E+00
(PID.TID 0000.0001) %MON g__dynstat_g_uvel_sd         =   0.0000000000000E+00
(PID.TID 0000.0001) %MON g__dynstat_g_uvel_del2       =   0.0000000000000E+00
(PID.TID 0000.0001) %MON g__dynstat_g_vvel_max        =   0.0000000000000E+00
(PID.TID 0000.0001) %MON g__dynstat_g_vvel_min        =   0.0000000000000E+00
(PID.TID 0000.0001) %MON g__dynstat_g_vvel_mean       =   0.0000000000000E+00
(PID.TID 0000.0001) %MON g__dynstat_g_vvel_sd         =   0.0000000000000E+00
(PID.TID 0000.0001) %MON g__dynstat_g_vvel_del2       =   0.0000000000000E+00
(PID.TID 0000.0001) %MON g__dynstat_g_wvel_max        =   0.0000000000000E+00
(PID.TID 0000.0001) %MON g__dynstat_g_wvel_min        =   0.0000000000000E+00
(PID.TID 0000.0001) %MON g__dynstat_g_wvel_mean       =   0.0000000000000E+00
(PID.TID 0000.0001) %MON g__dynstat_g_wvel_sd         =   0.0000000000000E+00
(PID.TID 0000.0001) %MON g__dynstat_g_wvel_del2       =   0.0000000000000E+00
(PID.TID 0000.0001) %MON g__dynstat_g_theta_max       =   0.0000000000000E+00
(PID.TID 0000.0001) %MON g__dynstat_g_theta_min       =   0.0000000000000E+00
(PID.TID 0000.0001) %MON g__dynstat_g_theta_mean      =   0.0000000000000E+00
(PID.TID 0000.0001) %MON g__dynstat_g_theta_sd        =   0.0000000000000E+00
(PID.TID 0000.0001) %MON g__dynstat_g_theta_del2      =   0.0000000000000E+00
(PID.TID 0000.0001) %MON g__dynstat_g_salt_max        =   0.0000000000000E+00
(PID.TID 0000.0001) %MON g__dynstat_g_salt_min        =   0.0000000000000E+00
(PID.TID 0000.0001) %MON g__dynstat_g_salt_mean       =   0.0000000000000E+00
(PID.TID 0000.0001) %MON g__dynstat_g_salt_sd         =   0.0000000000000E+00
(PID.TID 0000.0001) %MON g__dynstat_g_salt_del2       =   0.0000000000000E+00
(PID.TID 0000.0001) %MON g__dynstat_g_sst_max         =   0.0000000000000E+00
(PID.TID 0000.0001) %MON g__dynstat_g_sst_min         =   0.0000000000000E+00
(PID.TID 0000.0001) %MON g__dynstat_g_sst_mean        =   0.0000000000000E+00
(PID.TID 0000.0001) %MON g__dynstat_g_sst_sd          =   0.0000000000000E+00
(PID.TID 0000.0001) %MON g__dynstat_g_sst_del2        =   0.0000000000000E+00
(PID.TID 0000.0001) %MON g__dynstat_g_sss_max         =   0.0000000000000E+00
(PID.TID 0000.0001) %MON g__dynstat_g_sss_min         =   0.0000000000000E+00
(PID.TID 0000.0001) %MON g__dynstat_g_sss_mean        =   0.0000000000000E+00
(PID.TID 0000.0001) %MON g__dynstat_g_sss_sd          =   0.0000000000000E+00
(PID.TID 0000.0001) %MON g__dynstat_g_sss_del2        =   0.0000000000000E+00
(PID.TID 0000.0001) %MON g__extforcing_g_qnet_max     =   0.0000000000000E+00
(PID.TID 0000.0001) %MON g__extforcing_g_qnet_min     =   0.0000000000000E+00
(PID.TID 0000.0001) %MON g__extforcing_g_qnet_mean    =   0.0000000000000E+00
(PID.TID 0000.0001) %MON g__extforcing_g_qnet_sd      =   0.0000000000000E+00
(PID.TID 0000.0001) %MON g__extforcing_g_qnet_del2    =   0.0000000000000E+00
(PID.TID 0000.0001) %MON g__extforcing_g_empmr_max    =   0.0000000000000E+00
(PID.TID 0000.0001) %MON g__extforcing_g_empmr_min    =   0.0000000000000E+00
(PID.TID 0000.0001) %MON g__extforcing_g_empmr_mean   =   0.0000000000000E+00
(PID.TID 0000.0001) %MON g__extforcing_g_empmr_sd     =   0.0000000000000E+00
(PID.TID 0000.0001) %MON g__extforcing_g_empmr_del2   =   0.0000000000000E+00
(PID.TID 0000.0001) %MON g__extforcing_g_fu_max       =   0.0000000000000E+00
(PID.TID 0000.0001) %MON g__extforcing_g_fu_min       =   0.0000000000000E+00
(PID.TID 0000.0001) %MON g__extforcing_g_fu_mean      =   0.0000000000000E+00
(PID.TID 0000.0001) %MON g__extforcing_g_fu_sd        =   0.0000000000000E+00
(PID.TID 0000.0001) %MON g__extforcing_g_fu_del2      =   0.0000000000000E+00
(PID.TID 0000.0001) %MON g__extforcing_g_fv_max       =   0.0000000000000E+00
(PID.TID 0000.0001) %MON g__extforcing_g_fv_min       =   0.0000000000000E+00
(PID.TID 0000.0001) %MON g__extforcing_g_fv_mean      =   0.0000000000000E+00
(PID.TID 0000.0001) %MON g__extforcing_g_fv_sd        =   0.0000000000000E+00
(PID.TID 0000.0001) %MON g__extforcing_g_fv_del2      =   0.0000000000000E+00
(PID.TID 0000.0001) %MON g__g_vcfl_g_uvel_max         =   0.0000000000000E+00
(PID.TID 0000.0001) %MON g__g_vcfl_g_vvel_max         =   0.0000000000000E+00
(PID.TID 0000.0001) %MON g__g_vcfl_g_wvel_max         =   0.0000000000000E+00
(PID.TID 0000.0001) %MON g__g_vcfl_g_W_hf_max         =   0.0000000000000E+00
(PID.TID 0000.0001) // =======================================================
(PID.TID 0000.0001) // End MONITOR dynamic field statistics
(PID.TID 0000.0001) // =======================================================
 cg2d: Sum(rhs),rhsMax =   0.00000000000000E+00  0.00000000000000E+00
 cg2d: Sum(rhs),rhsMax =  -1.14792203520508E-12  8.14100424312465E+00
(PID.TID 0000.0001) // =======================================================
(PID.TID 0000.0001) // Begin MONITOR dynamic field statistics
(PID.TID 0000.0001) // =======================================================
(PID.TID 0000.0001) %MON g__time_tsnumber             =                    39
(PID.TID 0000.0001) %MON g__time_secondsf             =   1.6848000000000E+06
(PID.TID 0000.0001) %MON g__dynstat_g_eta_max         =   0.0000000000000E+00
(PID.TID 0000.0001) %MON g__dynstat_g_eta_min         =   0.0000000000000E+00
(PID.TID 0000.0001) %MON g__dynstat_g_eta_mean        =   0.0000000000000E+00
(PID.TID 0000.0001) %MON g__dynstat_g_eta_sd          =   0.0000000000000E+00
(PID.TID 0000.0001) %MON g__dynstat_g_eta_del2        =   0.0000000000000E+00
(PID.TID 0000.0001) %MON g__dynstat_g_uvel_max        =   0.0000000000000E+00
(PID.TID 0000.0001) %MON g__dynstat_g_uvel_min        =   0.0000000000000E+00
(PID.TID 0000.0001) %MON g__dynstat_g_uvel_mean       =   0.0000000000000E+00
(PID.TID 0000.0001) %MON g__dynstat_g_uvel_sd         =   0.0000000000000E+00
(PID.TID 0000.0001) %MON g__dynstat_g_uvel_del2       =   0.0000000000000E+00
(PID.TID 0000.0001) %MON g__dynstat_g_vvel_max        =   0.0000000000000E+00
(PID.TID 0000.0001) %MON g__dynstat_g_vvel_min        =   0.0000000000000E+00
(PID.TID 0000.0001) %MON g__dynstat_g_vvel_mean       =   0.0000000000000E+00
(PID.TID 0000.0001) %MON g__dynstat_g_vvel_sd         =   0.0000000000000E+00
(PID.TID 0000.0001) %MON g__dynstat_g_vvel_del2       =   0.0000000000000E+00
(PID.TID 0000.0001) %MON g__dynstat_g_wvel_max        =   0.0000000000000E+00
(PID.TID 0000.0001) %MON g__dynstat_g_wvel_min        =   0.0000000000000E+00
(PID.TID 0000.0001) %MON g__dynstat_g_wvel_mean       =   0.0000000000000E+00
(PID.TID 0000.0001) %MON g__dynstat_g_wvel_sd         =   0.0000000000000E+00
(PID.TID 0000.0001) %MON g__dynstat_g_wvel_del2       =   0.0000000000000E+00
(PID.TID 0000.0001) %MON g__dynstat_g_theta_max       =   0.0000000000000E+00
(PID.TID 0000.0001) %MON g__dynstat_g_theta_min       =   0.0000000000000E+00
(PID.TID 0000.0001) %MON g__dynstat_g_theta_mean      =   0.0000000000000E+00
(PID.TID 0000.0001) %MON g__dynstat_g_theta_sd        =   0.0000000000000E+00
(PID.TID 0000.0001) %MON g__dynstat_g_theta_del2      =   0.0000000000000E+00
(PID.TID 0000.0001) %MON g__dynstat_g_salt_max        =   0.0000000000000E+00
(PID.TID 0000.0001) %MON g__dynstat_g_salt_min        =   0.0000000000000E+00
(PID.TID 0000.0001) %MON g__dynstat_g_salt_mean       =   0.0000000000000E+00
(PID.TID 0000.0001) %MON g__dynstat_g_salt_sd         =   0.0000000000000E+00
(PID.TID 0000.0001) %MON g__dynstat_g_salt_del2       =   0.0000000000000E+00
(PID.TID 0000.0001) %MON g__dynstat_g_sst_max         =   0.0000000000000E+00
(PID.TID 0000.0001) %MON g__dynstat_g_sst_min         =   0.0000000000000E+00
(PID.TID 0000.0001) %MON g__dynstat_g_sst_mean        =   0.0000000000000E+00
(PID.TID 0000.0001) %MON g__dynstat_g_sst_sd          =   0.0000000000000E+00
(PID.TID 0000.0001) %MON g__dynstat_g_sst_del2        =   0.0000000000000E+00
(PID.TID 0000.0001) %MON g__dynstat_g_sss_max         =   0.0000000000000E+00
(PID.TID 0000.0001) %MON g__dynstat_g_sss_min         =   0.0000000000000E+00
(PID.TID 0000.0001) %MON g__dynstat_g_sss_mean        =   0.0000000000000E+00
(PID.TID 0000.0001) %MON g__dynstat_g_sss_sd          =   0.0000000000000E+00
(PID.TID 0000.0001) %MON g__dynstat_g_sss_del2        =   0.0000000000000E+00
(PID.TID 0000.0001) %MON g__extforcing_g_qnet_max     =   0.0000000000000E+00
(PID.TID 0000.0001) %MON g__extforcing_g_qnet_min     =   0.0000000000000E+00
(PID.TID 0000.0001) %MON g__extforcing_g_qnet_mean    =   0.0000000000000E+00
(PID.TID 0000.0001) %MON g__extforcing_g_qnet_sd      =   0.0000000000000E+00
(PID.TID 0000.0001) %MON g__extforcing_g_qnet_del2    =   0.0000000000000E+00
(PID.TID 0000.0001) %MON g__extforcing_g_empmr_max    =   0.0000000000000E+00
(PID.TID 0000.0001) %MON g__extforcing_g_empmr_min    =   0.0000000000000E+00
(PID.TID 0000.0001) %MON g__extforcing_g_empmr_mean   =   0.0000000000000E+00
(PID.TID 0000.0001) %MON g__extforcing_g_empmr_sd     =   0.0000000000000E+00
(PID.TID 0000.0001) %MON g__extforcing_g_empmr_del2   =   0.0000000000000E+00
(PID.TID 0000.0001) %MON g__extforcing_g_fu_max       =   0.0000000000000E+00
(PID.TID 0000.0001) %MON g__extforcing_g_fu_min       =   0.0000000000000E+00
(PID.TID 0000.0001) %MON g__extforcing_g_fu_mean      =   0.0000000000000E+00
(PID.TID 0000.0001) %MON g__extforcing_g_fu_sd        =   0.0000000000000E+00
(PID.TID 0000.0001) %MON g__extforcing_g_fu_del2      =   0.0000000000000E+00
(PID.TID 0000.0001) %MON g__extforcing_g_fv_max       =   0.0000000000000E+00
(PID.TID 0000.0001) %MON g__extforcing_g_fv_min       =   0.0000000000000E+00
(PID.TID 0000.0001) %MON g__extforcing_g_fv_mean      =   0.0000000000000E+00
(PID.TID 0000.0001) %MON g__extforcing_g_fv_sd        =   0.0000000000000E+00
(PID.TID 0000.0001) %MON g__extforcing_g_fv_del2      =   0.0000000000000E+00
(PID.TID 0000.0001) %MON g__g_vcfl_g_uvel_max         =   0.0000000000000E+00
(PID.TID 0000.0001) %MON g__g_vcfl_g_vvel_max         =   0.0000000000000E+00
(PID.TID 0000.0001) %MON g__g_vcfl_g_wvel_max         =   0.0000000000000E+00
(PID.TID 0000.0001) %MON g__g_vcfl_g_W_hf_max         =   0.0000000000000E+00
(PID.TID 0000.0001) // =======================================================
(PID.TID 0000.0001) // End MONITOR dynamic field statistics
(PID.TID 0000.0001) // =======================================================
 cg2d: Sum(rhs),rhsMax =   0.00000000000000E+00  0.00000000000000E+00
 cg2d: Sum(rhs),rhsMax =  -1.03755892766344E-12  7.67572566966594E+00
(PID.TID 0000.0001) // =======================================================
(PID.TID 0000.0001) // Begin MONITOR dynamic field statistics
(PID.TID 0000.0001) // =======================================================
(PID.TID 0000.0001) %MON g__time_tsnumber             =                    40
(PID.TID 0000.0001) %MON g__time_secondsf             =   1.7280000000000E+06
(PID.TID 0000.0001) %MON g__dynstat_g_eta_max         =   0.0000000000000E+00
(PID.TID 0000.0001) %MON g__dynstat_g_eta_min         =   0.0000000000000E+00
(PID.TID 0000.0001) %MON g__dynstat_g_eta_mean        =   0.0000000000000E+00
(PID.TID 0000.0001) %MON g__dynstat_g_eta_sd          =   0.0000000000000E+00
(PID.TID 0000.0001) %MON g__dynstat_g_eta_del2        =   0.0000000000000E+00
(PID.TID 0000.0001) %MON g__dynstat_g_uvel_max        =   0.0000000000000E+00
(PID.TID 0000.0001) %MON g__dynstat_g_uvel_min        =   0.0000000000000E+00
(PID.TID 0000.0001) %MON g__dynstat_g_uvel_mean       =   0.0000000000000E+00
(PID.TID 0000.0001) %MON g__dynstat_g_uvel_sd         =   0.0000000000000E+00
(PID.TID 0000.0001) %MON g__dynstat_g_uvel_del2       =   0.0000000000000E+00
(PID.TID 0000.0001) %MON g__dynstat_g_vvel_max        =   0.0000000000000E+00
(PID.TID 0000.0001) %MON g__dynstat_g_vvel_min        =   0.0000000000000E+00
(PID.TID 0000.0001) %MON g__dynstat_g_vvel_mean       =   0.0000000000000E+00
(PID.TID 0000.0001) %MON g__dynstat_g_vvel_sd         =   0.0000000000000E+00
(PID.TID 0000.0001) %MON g__dynstat_g_vvel_del2       =   0.0000000000000E+00
(PID.TID 0000.0001) %MON g__dynstat_g_wvel_max        =   0.0000000000000E+00
(PID.TID 0000.0001) %MON g__dynstat_g_wvel_min        =   0.0000000000000E+00
(PID.TID 0000.0001) %MON g__dynstat_g_wvel_mean       =   0.0000000000000E+00
(PID.TID 0000.0001) %MON g__dynstat_g_wvel_sd         =   0.0000000000000E+00
(PID.TID 0000.0001) %MON g__dynstat_g_wvel_del2       =   0.0000000000000E+00
(PID.TID 0000.0001) %MON g__dynstat_g_theta_max       =   0.0000000000000E+00
(PID.TID 0000.0001) %MON g__dynstat_g_theta_min       =   0.0000000000000E+00
(PID.TID 0000.0001) %MON g__dynstat_g_theta_mean      =   0.0000000000000E+00
(PID.TID 0000.0001) %MON g__dynstat_g_theta_sd        =   0.0000000000000E+00
(PID.TID 0000.0001) %MON g__dynstat_g_theta_del2      =   0.0000000000000E+00
(PID.TID 0000.0001) %MON g__dynstat_g_salt_max        =   0.0000000000000E+00
(PID.TID 0000.0001) %MON g__dynstat_g_salt_min        =   0.0000000000000E+00
(PID.TID 0000.0001) %MON g__dynstat_g_salt_mean       =   0.0000000000000E+00
(PID.TID 0000.0001) %MON g__dynstat_g_salt_sd         =   0.0000000000000E+00
(PID.TID 0000.0001) %MON g__dynstat_g_salt_del2       =   0.0000000000000E+00
(PID.TID 0000.0001) %MON g__dynstat_g_sst_max         =   0.0000000000000E+00
(PID.TID 0000.0001) %MON g__dynstat_g_sst_min         =   0.0000000000000E+00
(PID.TID 0000.0001) %MON g__dynstat_g_sst_mean        =   0.0000000000000E+00
(PID.TID 0000.0001) %MON g__dynstat_g_sst_sd          =   0.0000000000000E+00
(PID.TID 0000.0001) %MON g__dynstat_g_sst_del2        =   0.0000000000000E+00
(PID.TID 0000.0001) %MON g__dynstat_g_sss_max         =   0.0000000000000E+00
(PID.TID 0000.0001) %MON g__dynstat_g_sss_min         =   0.0000000000000E+00
(PID.TID 0000.0001) %MON g__dynstat_g_sss_mean        =   0.0000000000000E+00
(PID.TID 0000.0001) %MON g__dynstat_g_sss_sd          =   0.0000000000000E+00
(PID.TID 0000.0001) %MON g__dynstat_g_sss_del2        =   0.0000000000000E+00
(PID.TID 0000.0001) %MON g__extforcing_g_qnet_max     =   0.0000000000000E+00
(PID.TID 0000.0001) %MON g__extforcing_g_qnet_min     =   0.0000000000000E+00
(PID.TID 0000.0001) %MON g__extforcing_g_qnet_mean    =   0.0000000000000E+00
(PID.TID 0000.0001) %MON g__extforcing_g_qnet_sd      =   0.0000000000000E+00
(PID.TID 0000.0001) %MON g__extforcing_g_qnet_del2    =   0.0000000000000E+00
(PID.TID 0000.0001) %MON g__extforcing_g_empmr_max    =   0.0000000000000E+00
(PID.TID 0000.0001) %MON g__extforcing_g_empmr_min    =   0.0000000000000E+00
(PID.TID 0000.0001) %MON g__extforcing_g_empmr_mean   =   0.0000000000000E+00
(PID.TID 0000.0001) %MON g__extforcing_g_empmr_sd     =   0.0000000000000E+00
(PID.TID 0000.0001) %MON g__extforcing_g_empmr_del2   =   0.0000000000000E+00
(PID.TID 0000.0001) %MON g__extforcing_g_fu_max       =   0.0000000000000E+00
(PID.TID 0000.0001) %MON g__extforcing_g_fu_min       =   0.0000000000000E+00
(PID.TID 0000.0001) %MON g__extforcing_g_fu_mean      =   0.0000000000000E+00
(PID.TID 0000.0001) %MON g__extforcing_g_fu_sd        =   0.0000000000000E+00
(PID.TID 0000.0001) %MON g__extforcing_g_fu_del2      =   0.0000000000000E+00
(PID.TID 0000.0001) %MON g__extforcing_g_fv_max       =   0.0000000000000E+00
(PID.TID 0000.0001) %MON g__extforcing_g_fv_min       =   0.0000000000000E+00
(PID.TID 0000.0001) %MON g__extforcing_g_fv_mean      =   0.0000000000000E+00
(PID.TID 0000.0001) %MON g__extforcing_g_fv_sd        =   0.0000000000000E+00
(PID.TID 0000.0001) %MON g__extforcing_g_fv_del2      =   0.0000000000000E+00
(PID.TID 0000.0001) %MON g__g_vcfl_g_uvel_max         =   0.0000000000000E+00
(PID.TID 0000.0001) %MON g__g_vcfl_g_vvel_max         =   0.0000000000000E+00
(PID.TID 0000.0001) %MON g__g_vcfl_g_wvel_max         =   0.0000000000000E+00
(PID.TID 0000.0001) %MON g__g_vcfl_g_W_hf_max         =   0.0000000000000E+00
(PID.TID 0000.0001) // =======================================================
(PID.TID 0000.0001) // End MONITOR dynamic field statistics
(PID.TID 0000.0001) // =======================================================
 myIter=  40
(PID.TID 0000.0001) // Model state written, timestep        40
(PID.TID 0000.0001) 
 cg2d: Sum(rhs),rhsMax =   0.00000000000000E+00  0.00000000000000E+00
 cg2d: Sum(rhs),rhsMax =  -6.19490569953030E-13  7.14638778751145E+00
(PID.TID 0000.0001) // =======================================================
(PID.TID 0000.0001) // Begin MONITOR dynamic field statistics
(PID.TID 0000.0001) // =======================================================
(PID.TID 0000.0001) %MON g__time_tsnumber             =                    41
(PID.TID 0000.0001) %MON g__time_secondsf             =   1.7712000000000E+06
(PID.TID 0000.0001) %MON g__dynstat_g_eta_max         =   0.0000000000000E+00
(PID.TID 0000.0001) %MON g__dynstat_g_eta_min         =   0.0000000000000E+00
(PID.TID 0000.0001) %MON g__dynstat_g_eta_mean        =   0.0000000000000E+00
(PID.TID 0000.0001) %MON g__dynstat_g_eta_sd          =   0.0000000000000E+00
(PID.TID 0000.0001) %MON g__dynstat_g_eta_del2        =   0.0000000000000E+00
(PID.TID 0000.0001) %MON g__dynstat_g_uvel_max        =   0.0000000000000E+00
(PID.TID 0000.0001) %MON g__dynstat_g_uvel_min        =   0.0000000000000E+00
(PID.TID 0000.0001) %MON g__dynstat_g_uvel_mean       =   0.0000000000000E+00
(PID.TID 0000.0001) %MON g__dynstat_g_uvel_sd         =   0.0000000000000E+00
(PID.TID 0000.0001) %MON g__dynstat_g_uvel_del2       =   0.0000000000000E+00
(PID.TID 0000.0001) %MON g__dynstat_g_vvel_max        =   0.0000000000000E+00
(PID.TID 0000.0001) %MON g__dynstat_g_vvel_min        =   0.0000000000000E+00
(PID.TID 0000.0001) %MON g__dynstat_g_vvel_mean       =   0.0000000000000E+00
(PID.TID 0000.0001) %MON g__dynstat_g_vvel_sd         =   0.0000000000000E+00
(PID.TID 0000.0001) %MON g__dynstat_g_vvel_del2       =   0.0000000000000E+00
(PID.TID 0000.0001) %MON g__dynstat_g_wvel_max        =   0.0000000000000E+00
(PID.TID 0000.0001) %MON g__dynstat_g_wvel_min        =   0.0000000000000E+00
(PID.TID 0000.0001) %MON g__dynstat_g_wvel_mean       =   0.0000000000000E+00
(PID.TID 0000.0001) %MON g__dynstat_g_wvel_sd         =   0.0000000000000E+00
(PID.TID 0000.0001) %MON g__dynstat_g_wvel_del2       =   0.0000000000000E+00
(PID.TID 0000.0001) %MON g__dynstat_g_theta_max       =   0.0000000000000E+00
(PID.TID 0000.0001) %MON g__dynstat_g_theta_min       =   0.0000000000000E+00
(PID.TID 0000.0001) %MON g__dynstat_g_theta_mean      =   0.0000000000000E+00
(PID.TID 0000.0001) %MON g__dynstat_g_theta_sd        =   0.0000000000000E+00
(PID.TID 0000.0001) %MON g__dynstat_g_theta_del2      =   0.0000000000000E+00
(PID.TID 0000.0001) %MON g__dynstat_g_salt_max        =   0.0000000000000E+00
(PID.TID 0000.0001) %MON g__dynstat_g_salt_min        =   0.0000000000000E+00
(PID.TID 0000.0001) %MON g__dynstat_g_salt_mean       =   0.0000000000000E+00
(PID.TID 0000.0001) %MON g__dynstat_g_salt_sd         =   0.0000000000000E+00
(PID.TID 0000.0001) %MON g__dynstat_g_salt_del2       =   0.0000000000000E+00
(PID.TID 0000.0001) %MON g__dynstat_g_sst_max         =   0.0000000000000E+00
(PID.TID 0000.0001) %MON g__dynstat_g_sst_min         =   0.0000000000000E+00
(PID.TID 0000.0001) %MON g__dynstat_g_sst_mean        =   0.0000000000000E+00
(PID.TID 0000.0001) %MON g__dynstat_g_sst_sd          =   0.0000000000000E+00
(PID.TID 0000.0001) %MON g__dynstat_g_sst_del2        =   0.0000000000000E+00
(PID.TID 0000.0001) %MON g__dynstat_g_sss_max         =   0.0000000000000E+00
(PID.TID 0000.0001) %MON g__dynstat_g_sss_min         =   0.0000000000000E+00
(PID.TID 0000.0001) %MON g__dynstat_g_sss_mean        =   0.0000000000000E+00
(PID.TID 0000.0001) %MON g__dynstat_g_sss_sd          =   0.0000000000000E+00
(PID.TID 0000.0001) %MON g__dynstat_g_sss_del2        =   0.0000000000000E+00
(PID.TID 0000.0001) %MON g__extforcing_g_qnet_max     =   0.0000000000000E+00
(PID.TID 0000.0001) %MON g__extforcing_g_qnet_min     =   0.0000000000000E+00
(PID.TID 0000.0001) %MON g__extforcing_g_qnet_mean    =   0.0000000000000E+00
(PID.TID 0000.0001) %MON g__extforcing_g_qnet_sd      =   0.0000000000000E+00
(PID.TID 0000.0001) %MON g__extforcing_g_qnet_del2    =   0.0000000000000E+00
(PID.TID 0000.0001) %MON g__extforcing_g_empmr_max    =   0.0000000000000E+00
(PID.TID 0000.0001) %MON g__extforcing_g_empmr_min    =   0.0000000000000E+00
(PID.TID 0000.0001) %MON g__extforcing_g_empmr_mean   =   0.0000000000000E+00
(PID.TID 0000.0001) %MON g__extforcing_g_empmr_sd     =   0.0000000000000E+00
(PID.TID 0000.0001) %MON g__extforcing_g_empmr_del2   =   0.0000000000000E+00
(PID.TID 0000.0001) %MON g__extforcing_g_fu_max       =   0.0000000000000E+00
(PID.TID 0000.0001) %MON g__extforcing_g_fu_min       =   0.0000000000000E+00
(PID.TID 0000.0001) %MON g__extforcing_g_fu_mean      =   0.0000000000000E+00
(PID.TID 0000.0001) %MON g__extforcing_g_fu_sd        =   0.0000000000000E+00
(PID.TID 0000.0001) %MON g__extforcing_g_fu_del2      =   0.0000000000000E+00
(PID.TID 0000.0001) %MON g__extforcing_g_fv_max       =   0.0000000000000E+00
(PID.TID 0000.0001) %MON g__extforcing_g_fv_min       =   0.0000000000000E+00
(PID.TID 0000.0001) %MON g__extforcing_g_fv_mean      =   0.0000000000000E+00
(PID.TID 0000.0001) %MON g__extforcing_g_fv_sd        =   0.0000000000000E+00
(PID.TID 0000.0001) %MON g__extforcing_g_fv_del2      =   0.0000000000000E+00
(PID.TID 0000.0001) %MON g__g_vcfl_g_uvel_max         =   0.0000000000000E+00
(PID.TID 0000.0001) %MON g__g_vcfl_g_vvel_max         =   0.0000000000000E+00
(PID.TID 0000.0001) %MON g__g_vcfl_g_wvel_max         =   0.0000000000000E+00
(PID.TID 0000.0001) %MON g__g_vcfl_g_W_hf_max         =   0.0000000000000E+00
(PID.TID 0000.0001) // =======================================================
(PID.TID 0000.0001) // End MONITOR dynamic field statistics
(PID.TID 0000.0001) // =======================================================
 cg2d: Sum(rhs),rhsMax =   0.00000000000000E+00  0.00000000000000E+00
 cg2d: Sum(rhs),rhsMax =  -4.48079073844809E-13  7.16032443393138E+00
(PID.TID 0000.0001) // =======================================================
(PID.TID 0000.0001) // Begin MONITOR dynamic field statistics
(PID.TID 0000.0001) // =======================================================
(PID.TID 0000.0001) %MON g__time_tsnumber             =                    42
(PID.TID 0000.0001) %MON g__time_secondsf             =   1.8144000000000E+06
(PID.TID 0000.0001) %MON g__dynstat_g_eta_max         =   0.0000000000000E+00
(PID.TID 0000.0001) %MON g__dynstat_g_eta_min         =   0.0000000000000E+00
(PID.TID 0000.0001) %MON g__dynstat_g_eta_mean        =   0.0000000000000E+00
(PID.TID 0000.0001) %MON g__dynstat_g_eta_sd          =   0.0000000000000E+00
(PID.TID 0000.0001) %MON g__dynstat_g_eta_del2        =   0.0000000000000E+00
(PID.TID 0000.0001) %MON g__dynstat_g_uvel_max        =   0.0000000000000E+00
(PID.TID 0000.0001) %MON g__dynstat_g_uvel_min        =   0.0000000000000E+00
(PID.TID 0000.0001) %MON g__dynstat_g_uvel_mean       =   0.0000000000000E+00
(PID.TID 0000.0001) %MON g__dynstat_g_uvel_sd         =   0.0000000000000E+00
(PID.TID 0000.0001) %MON g__dynstat_g_uvel_del2       =   0.0000000000000E+00
(PID.TID 0000.0001) %MON g__dynstat_g_vvel_max        =   0.0000000000000E+00
(PID.TID 0000.0001) %MON g__dynstat_g_vvel_min        =   0.0000000000000E+00
(PID.TID 0000.0001) %MON g__dynstat_g_vvel_mean       =   0.0000000000000E+00
(PID.TID 0000.0001) %MON g__dynstat_g_vvel_sd         =   0.0000000000000E+00
(PID.TID 0000.0001) %MON g__dynstat_g_vvel_del2       =   0.0000000000000E+00
(PID.TID 0000.0001) %MON g__dynstat_g_wvel_max        =   0.0000000000000E+00
(PID.TID 0000.0001) %MON g__dynstat_g_wvel_min        =   0.0000000000000E+00
(PID.TID 0000.0001) %MON g__dynstat_g_wvel_mean       =   0.0000000000000E+00
(PID.TID 0000.0001) %MON g__dynstat_g_wvel_sd         =   0.0000000000000E+00
(PID.TID 0000.0001) %MON g__dynstat_g_wvel_del2       =   0.0000000000000E+00
(PID.TID 0000.0001) %MON g__dynstat_g_theta_max       =   0.0000000000000E+00
(PID.TID 0000.0001) %MON g__dynstat_g_theta_min       =   0.0000000000000E+00
(PID.TID 0000.0001) %MON g__dynstat_g_theta_mean      =   0.0000000000000E+00
(PID.TID 0000.0001) %MON g__dynstat_g_theta_sd        =   0.0000000000000E+00
(PID.TID 0000.0001) %MON g__dynstat_g_theta_del2      =   0.0000000000000E+00
(PID.TID 0000.0001) %MON g__dynstat_g_salt_max        =   0.0000000000000E+00
(PID.TID 0000.0001) %MON g__dynstat_g_salt_min        =   0.0000000000000E+00
(PID.TID 0000.0001) %MON g__dynstat_g_salt_mean       =   0.0000000000000E+00
(PID.TID 0000.0001) %MON g__dynstat_g_salt_sd         =   0.0000000000000E+00
(PID.TID 0000.0001) %MON g__dynstat_g_salt_del2       =   0.0000000000000E+00
(PID.TID 0000.0001) %MON g__dynstat_g_sst_max         =   0.0000000000000E+00
(PID.TID 0000.0001) %MON g__dynstat_g_sst_min         =   0.0000000000000E+00
(PID.TID 0000.0001) %MON g__dynstat_g_sst_mean        =   0.0000000000000E+00
(PID.TID 0000.0001) %MON g__dynstat_g_sst_sd          =   0.0000000000000E+00
(PID.TID 0000.0001) %MON g__dynstat_g_sst_del2        =   0.0000000000000E+00
(PID.TID 0000.0001) %MON g__dynstat_g_sss_max         =   0.0000000000000E+00
(PID.TID 0000.0001) %MON g__dynstat_g_sss_min         =   0.0000000000000E+00
(PID.TID 0000.0001) %MON g__dynstat_g_sss_mean        =   0.0000000000000E+00
(PID.TID 0000.0001) %MON g__dynstat_g_sss_sd          =   0.0000000000000E+00
(PID.TID 0000.0001) %MON g__dynstat_g_sss_del2        =   0.0000000000000E+00
(PID.TID 0000.0001) %MON g__extforcing_g_qnet_max     =   0.0000000000000E+00
(PID.TID 0000.0001) %MON g__extforcing_g_qnet_min     =   0.0000000000000E+00
(PID.TID 0000.0001) %MON g__extforcing_g_qnet_mean    =   0.0000000000000E+00
(PID.TID 0000.0001) %MON g__extforcing_g_qnet_sd      =   0.0000000000000E+00
(PID.TID 0000.0001) %MON g__extforcing_g_qnet_del2    =   0.0000000000000E+00
(PID.TID 0000.0001) %MON g__extforcing_g_empmr_max    =   0.0000000000000E+00
(PID.TID 0000.0001) %MON g__extforcing_g_empmr_min    =   0.0000000000000E+00
(PID.TID 0000.0001) %MON g__extforcing_g_empmr_mean   =   0.0000000000000E+00
(PID.TID 0000.0001) %MON g__extforcing_g_empmr_sd     =   0.0000000000000E+00
(PID.TID 0000.0001) %MON g__extforcing_g_empmr_del2   =   0.0000000000000E+00
(PID.TID 0000.0001) %MON g__extforcing_g_fu_max       =   0.0000000000000E+00
(PID.TID 0000.0001) %MON g__extforcing_g_fu_min       =   0.0000000000000E+00
(PID.TID 0000.0001) %MON g__extforcing_g_fu_mean      =   0.0000000000000E+00
(PID.TID 0000.0001) %MON g__extforcing_g_fu_sd        =   0.0000000000000E+00
(PID.TID 0000.0001) %MON g__extforcing_g_fu_del2      =   0.0000000000000E+00
(PID.TID 0000.0001) %MON g__extforcing_g_fv_max       =   0.0000000000000E+00
(PID.TID 0000.0001) %MON g__extforcing_g_fv_min       =   0.0000000000000E+00
(PID.TID 0000.0001) %MON g__extforcing_g_fv_mean      =   0.0000000000000E+00
(PID.TID 0000.0001) %MON g__extforcing_g_fv_sd        =   0.0000000000000E+00
(PID.TID 0000.0001) %MON g__extforcing_g_fv_del2      =   0.0000000000000E+00
(PID.TID 0000.0001) %MON g__g_vcfl_g_uvel_max         =   0.0000000000000E+00
(PID.TID 0000.0001) %MON g__g_vcfl_g_vvel_max         =   0.0000000000000E+00
(PID.TID 0000.0001) %MON g__g_vcfl_g_wvel_max         =   0.0000000000000E+00
(PID.TID 0000.0001) %MON g__g_vcfl_g_W_hf_max         =   0.0000000000000E+00
(PID.TID 0000.0001) // =======================================================
(PID.TID 0000.0001) // End MONITOR dynamic field statistics
(PID.TID 0000.0001) // =======================================================
 cg2d: Sum(rhs),rhsMax =   0.00000000000000E+00  0.00000000000000E+00
 cg2d: Sum(rhs),rhsMax =  -3.42434414157822E-13  7.19604411743552E+00
(PID.TID 0000.0001) // =======================================================
(PID.TID 0000.0001) // Begin MONITOR dynamic field statistics
(PID.TID 0000.0001) // =======================================================
(PID.TID 0000.0001) %MON g__time_tsnumber             =                    43
(PID.TID 0000.0001) %MON g__time_secondsf             =   1.8576000000000E+06
(PID.TID 0000.0001) %MON g__dynstat_g_eta_max         =   0.0000000000000E+00
(PID.TID 0000.0001) %MON g__dynstat_g_eta_min         =   0.0000000000000E+00
(PID.TID 0000.0001) %MON g__dynstat_g_eta_mean        =   0.0000000000000E+00
(PID.TID 0000.0001) %MON g__dynstat_g_eta_sd          =   0.0000000000000E+00
(PID.TID 0000.0001) %MON g__dynstat_g_eta_del2        =   0.0000000000000E+00
(PID.TID 0000.0001) %MON g__dynstat_g_uvel_max        =   0.0000000000000E+00
(PID.TID 0000.0001) %MON g__dynstat_g_uvel_min        =   0.0000000000000E+00
(PID.TID 0000.0001) %MON g__dynstat_g_uvel_mean       =   0.0000000000000E+00
(PID.TID 0000.0001) %MON g__dynstat_g_uvel_sd         =   0.0000000000000E+00
(PID.TID 0000.0001) %MON g__dynstat_g_uvel_del2       =   0.0000000000000E+00
(PID.TID 0000.0001) %MON g__dynstat_g_vvel_max        =   0.0000000000000E+00
(PID.TID 0000.0001) %MON g__dynstat_g_vvel_min        =   0.0000000000000E+00
(PID.TID 0000.0001) %MON g__dynstat_g_vvel_mean       =   0.0000000000000E+00
(PID.TID 0000.0001) %MON g__dynstat_g_vvel_sd         =   0.0000000000000E+00
(PID.TID 0000.0001) %MON g__dynstat_g_vvel_del2       =   0.0000000000000E+00
(PID.TID 0000.0001) %MON g__dynstat_g_wvel_max        =   0.0000000000000E+00
(PID.TID 0000.0001) %MON g__dynstat_g_wvel_min        =   0.0000000000000E+00
(PID.TID 0000.0001) %MON g__dynstat_g_wvel_mean       =   0.0000000000000E+00
(PID.TID 0000.0001) %MON g__dynstat_g_wvel_sd         =   0.0000000000000E+00
(PID.TID 0000.0001) %MON g__dynstat_g_wvel_del2       =   0.0000000000000E+00
(PID.TID 0000.0001) %MON g__dynstat_g_theta_max       =   0.0000000000000E+00
(PID.TID 0000.0001) %MON g__dynstat_g_theta_min       =   0.0000000000000E+00
(PID.TID 0000.0001) %MON g__dynstat_g_theta_mean      =   0.0000000000000E+00
(PID.TID 0000.0001) %MON g__dynstat_g_theta_sd        =   0.0000000000000E+00
(PID.TID 0000.0001) %MON g__dynstat_g_theta_del2      =   0.0000000000000E+00
(PID.TID 0000.0001) %MON g__dynstat_g_salt_max        =   0.0000000000000E+00
(PID.TID 0000.0001) %MON g__dynstat_g_salt_min        =   0.0000000000000E+00
(PID.TID 0000.0001) %MON g__dynstat_g_salt_mean       =   0.0000000000000E+00
(PID.TID 0000.0001) %MON g__dynstat_g_salt_sd         =   0.0000000000000E+00
(PID.TID 0000.0001) %MON g__dynstat_g_salt_del2       =   0.0000000000000E+00
(PID.TID 0000.0001) %MON g__dynstat_g_sst_max         =   0.0000000000000E+00
(PID.TID 0000.0001) %MON g__dynstat_g_sst_min         =   0.0000000000000E+00
(PID.TID 0000.0001) %MON g__dynstat_g_sst_mean        =   0.0000000000000E+00
(PID.TID 0000.0001) %MON g__dynstat_g_sst_sd          =   0.0000000000000E+00
(PID.TID 0000.0001) %MON g__dynstat_g_sst_del2        =   0.0000000000000E+00
(PID.TID 0000.0001) %MON g__dynstat_g_sss_max         =   0.0000000000000E+00
(PID.TID 0000.0001) %MON g__dynstat_g_sss_min         =   0.0000000000000E+00
(PID.TID 0000.0001) %MON g__dynstat_g_sss_mean        =   0.0000000000000E+00
(PID.TID 0000.0001) %MON g__dynstat_g_sss_sd          =   0.0000000000000E+00
(PID.TID 0000.0001) %MON g__dynstat_g_sss_del2        =   0.0000000000000E+00
(PID.TID 0000.0001) %MON g__extforcing_g_qnet_max     =   0.0000000000000E+00
(PID.TID 0000.0001) %MON g__extforcing_g_qnet_min     =   0.0000000000000E+00
(PID.TID 0000.0001) %MON g__extforcing_g_qnet_mean    =   0.0000000000000E+00
(PID.TID 0000.0001) %MON g__extforcing_g_qnet_sd      =   0.0000000000000E+00
(PID.TID 0000.0001) %MON g__extforcing_g_qnet_del2    =   0.0000000000000E+00
(PID.TID 0000.0001) %MON g__extforcing_g_empmr_max    =   0.0000000000000E+00
(PID.TID 0000.0001) %MON g__extforcing_g_empmr_min    =   0.0000000000000E+00
(PID.TID 0000.0001) %MON g__extforcing_g_empmr_mean   =   0.0000000000000E+00
(PID.TID 0000.0001) %MON g__extforcing_g_empmr_sd     =   0.0000000000000E+00
(PID.TID 0000.0001) %MON g__extforcing_g_empmr_del2   =   0.0000000000000E+00
(PID.TID 0000.0001) %MON g__extforcing_g_fu_max       =   0.0000000000000E+00
(PID.TID 0000.0001) %MON g__extforcing_g_fu_min       =   0.0000000000000E+00
(PID.TID 0000.0001) %MON g__extforcing_g_fu_mean      =   0.0000000000000E+00
(PID.TID 0000.0001) %MON g__extforcing_g_fu_sd        =   0.0000000000000E+00
(PID.TID 0000.0001) %MON g__extforcing_g_fu_del2      =   0.0000000000000E+00
(PID.TID 0000.0001) %MON g__extforcing_g_fv_max       =   0.0000000000000E+00
(PID.TID 0000.0001) %MON g__extforcing_g_fv_min       =   0.0000000000000E+00
(PID.TID 0000.0001) %MON g__extforcing_g_fv_mean      =   0.0000000000000E+00
(PID.TID 0000.0001) %MON g__extforcing_g_fv_sd        =   0.0000000000000E+00
(PID.TID 0000.0001) %MON g__extforcing_g_fv_del2      =   0.0000000000000E+00
(PID.TID 0000.0001) %MON g__g_vcfl_g_uvel_max         =   0.0000000000000E+00
(PID.TID 0000.0001) %MON g__g_vcfl_g_vvel_max         =   0.0000000000000E+00
(PID.TID 0000.0001) %MON g__g_vcfl_g_wvel_max         =   0.0000000000000E+00
(PID.TID 0000.0001) %MON g__g_vcfl_g_W_hf_max         =   0.0000000000000E+00
(PID.TID 0000.0001) // =======================================================
(PID.TID 0000.0001) // End MONITOR dynamic field statistics
(PID.TID 0000.0001) // =======================================================
 cg2d: Sum(rhs),rhsMax =   0.00000000000000E+00  0.00000000000000E+00
 cg2d: Sum(rhs),rhsMax =  -5.94906068851486E-13  7.21623310024423E+00
(PID.TID 0000.0001) // =======================================================
(PID.TID 0000.0001) // Begin MONITOR dynamic field statistics
(PID.TID 0000.0001) // =======================================================
(PID.TID 0000.0001) %MON g__time_tsnumber             =                    44
(PID.TID 0000.0001) %MON g__time_secondsf             =   1.9008000000000E+06
(PID.TID 0000.0001) %MON g__dynstat_g_eta_max         =   0.0000000000000E+00
(PID.TID 0000.0001) %MON g__dynstat_g_eta_min         =   0.0000000000000E+00
(PID.TID 0000.0001) %MON g__dynstat_g_eta_mean        =   0.0000000000000E+00
(PID.TID 0000.0001) %MON g__dynstat_g_eta_sd          =   0.0000000000000E+00
(PID.TID 0000.0001) %MON g__dynstat_g_eta_del2        =   0.0000000000000E+00
(PID.TID 0000.0001) %MON g__dynstat_g_uvel_max        =   0.0000000000000E+00
(PID.TID 0000.0001) %MON g__dynstat_g_uvel_min        =   0.0000000000000E+00
(PID.TID 0000.0001) %MON g__dynstat_g_uvel_mean       =   0.0000000000000E+00
(PID.TID 0000.0001) %MON g__dynstat_g_uvel_sd         =   0.0000000000000E+00
(PID.TID 0000.0001) %MON g__dynstat_g_uvel_del2       =   0.0000000000000E+00
(PID.TID 0000.0001) %MON g__dynstat_g_vvel_max        =   0.0000000000000E+00
(PID.TID 0000.0001) %MON g__dynstat_g_vvel_min        =   0.0000000000000E+00
(PID.TID 0000.0001) %MON g__dynstat_g_vvel_mean       =   0.0000000000000E+00
(PID.TID 0000.0001) %MON g__dynstat_g_vvel_sd         =   0.0000000000000E+00
(PID.TID 0000.0001) %MON g__dynstat_g_vvel_del2       =   0.0000000000000E+00
(PID.TID 0000.0001) %MON g__dynstat_g_wvel_max        =   0.0000000000000E+00
(PID.TID 0000.0001) %MON g__dynstat_g_wvel_min        =   0.0000000000000E+00
(PID.TID 0000.0001) %MON g__dynstat_g_wvel_mean       =   0.0000000000000E+00
(PID.TID 0000.0001) %MON g__dynstat_g_wvel_sd         =   0.0000000000000E+00
(PID.TID 0000.0001) %MON g__dynstat_g_wvel_del2       =   0.0000000000000E+00
(PID.TID 0000.0001) %MON g__dynstat_g_theta_max       =   0.0000000000000E+00
(PID.TID 0000.0001) %MON g__dynstat_g_theta_min       =   0.0000000000000E+00
(PID.TID 0000.0001) %MON g__dynstat_g_theta_mean      =   0.0000000000000E+00
(PID.TID 0000.0001) %MON g__dynstat_g_theta_sd        =   0.0000000000000E+00
(PID.TID 0000.0001) %MON g__dynstat_g_theta_del2      =   0.0000000000000E+00
(PID.TID 0000.0001) %MON g__dynstat_g_salt_max        =   0.0000000000000E+00
(PID.TID 0000.0001) %MON g__dynstat_g_salt_min        =   0.0000000000000E+00
(PID.TID 0000.0001) %MON g__dynstat_g_salt_mean       =   0.0000000000000E+00
(PID.TID 0000.0001) %MON g__dynstat_g_salt_sd         =   0.0000000000000E+00
(PID.TID 0000.0001) %MON g__dynstat_g_salt_del2       =   0.0000000000000E+00
(PID.TID 0000.0001) %MON g__dynstat_g_sst_max         =   0.0000000000000E+00
(PID.TID 0000.0001) %MON g__dynstat_g_sst_min         =   0.0000000000000E+00
(PID.TID 0000.0001) %MON g__dynstat_g_sst_mean        =   0.0000000000000E+00
(PID.TID 0000.0001) %MON g__dynstat_g_sst_sd          =   0.0000000000000E+00
(PID.TID 0000.0001) %MON g__dynstat_g_sst_del2        =   0.0000000000000E+00
(PID.TID 0000.0001) %MON g__dynstat_g_sss_max         =   0.0000000000000E+00
(PID.TID 0000.0001) %MON g__dynstat_g_sss_min         =   0.0000000000000E+00
(PID.TID 0000.0001) %MON g__dynstat_g_sss_mean        =   0.0000000000000E+00
(PID.TID 0000.0001) %MON g__dynstat_g_sss_sd          =   0.0000000000000E+00
(PID.TID 0000.0001) %MON g__dynstat_g_sss_del2        =   0.0000000000000E+00
(PID.TID 0000.0001) %MON g__extforcing_g_qnet_max     =   0.0000000000000E+00
(PID.TID 0000.0001) %MON g__extforcing_g_qnet_min     =   0.0000000000000E+00
(PID.TID 0000.0001) %MON g__extforcing_g_qnet_mean    =   0.0000000000000E+00
(PID.TID 0000.0001) %MON g__extforcing_g_qnet_sd      =   0.0000000000000E+00
(PID.TID 0000.0001) %MON g__extforcing_g_qnet_del2    =   0.0000000000000E+00
(PID.TID 0000.0001) %MON g__extforcing_g_empmr_max    =   0.0000000000000E+00
(PID.TID 0000.0001) %MON g__extforcing_g_empmr_min    =   0.0000000000000E+00
(PID.TID 0000.0001) %MON g__extforcing_g_empmr_mean   =   0.0000000000000E+00
(PID.TID 0000.0001) %MON g__extforcing_g_empmr_sd     =   0.0000000000000E+00
(PID.TID 0000.0001) %MON g__extforcing_g_empmr_del2   =   0.0000000000000E+00
(PID.TID 0000.0001) %MON g__extforcing_g_fu_max       =   0.0000000000000E+00
(PID.TID 0000.0001) %MON g__extforcing_g_fu_min       =   0.0000000000000E+00
(PID.TID 0000.0001) %MON g__extforcing_g_fu_mean      =   0.0000000000000E+00
(PID.TID 0000.0001) %MON g__extforcing_g_fu_sd        =   0.0000000000000E+00
(PID.TID 0000.0001) %MON g__extforcing_g_fu_del2      =   0.0000000000000E+00
(PID.TID 0000.0001) %MON g__extforcing_g_fv_max       =   0.0000000000000E+00
(PID.TID 0000.0001) %MON g__extforcing_g_fv_min       =   0.0000000000000E+00
(PID.TID 0000.0001) %MON g__extforcing_g_fv_mean      =   0.0000000000000E+00
(PID.TID 0000.0001) %MON g__extforcing_g_fv_sd        =   0.0000000000000E+00
(PID.TID 0000.0001) %MON g__extforcing_g_fv_del2      =   0.0000000000000E+00
(PID.TID 0000.0001) %MON g__g_vcfl_g_uvel_max         =   0.0000000000000E+00
(PID.TID 0000.0001) %MON g__g_vcfl_g_vvel_max         =   0.0000000000000E+00
(PID.TID 0000.0001) %MON g__g_vcfl_g_wvel_max         =   0.0000000000000E+00
(PID.TID 0000.0001) %MON g__g_vcfl_g_W_hf_max         =   0.0000000000000E+00
(PID.TID 0000.0001) // =======================================================
(PID.TID 0000.0001) // End MONITOR dynamic field statistics
(PID.TID 0000.0001) // =======================================================
 cg2d: Sum(rhs),rhsMax =   0.00000000000000E+00  0.00000000000000E+00
 cg2d: Sum(rhs),rhsMax =  -2.28234098287317E-13  7.36407436363191E+00
(PID.TID 0000.0001) // =======================================================
(PID.TID 0000.0001) // Begin MONITOR dynamic field statistics
(PID.TID 0000.0001) // =======================================================
(PID.TID 0000.0001) %MON g__time_tsnumber             =                    45
(PID.TID 0000.0001) %MON g__time_secondsf             =   1.9440000000000E+06
(PID.TID 0000.0001) %MON g__dynstat_g_eta_max         =   0.0000000000000E+00
(PID.TID 0000.0001) %MON g__dynstat_g_eta_min         =   0.0000000000000E+00
(PID.TID 0000.0001) %MON g__dynstat_g_eta_mean        =   0.0000000000000E+00
(PID.TID 0000.0001) %MON g__dynstat_g_eta_sd          =   0.0000000000000E+00
(PID.TID 0000.0001) %MON g__dynstat_g_eta_del2        =   0.0000000000000E+00
(PID.TID 0000.0001) %MON g__dynstat_g_uvel_max        =   0.0000000000000E+00
(PID.TID 0000.0001) %MON g__dynstat_g_uvel_min        =   0.0000000000000E+00
(PID.TID 0000.0001) %MON g__dynstat_g_uvel_mean       =   0.0000000000000E+00
(PID.TID 0000.0001) %MON g__dynstat_g_uvel_sd         =   0.0000000000000E+00
(PID.TID 0000.0001) %MON g__dynstat_g_uvel_del2       =   0.0000000000000E+00
(PID.TID 0000.0001) %MON g__dynstat_g_vvel_max        =   0.0000000000000E+00
(PID.TID 0000.0001) %MON g__dynstat_g_vvel_min        =   0.0000000000000E+00
(PID.TID 0000.0001) %MON g__dynstat_g_vvel_mean       =   0.0000000000000E+00
(PID.TID 0000.0001) %MON g__dynstat_g_vvel_sd         =   0.0000000000000E+00
(PID.TID 0000.0001) %MON g__dynstat_g_vvel_del2       =   0.0000000000000E+00
(PID.TID 0000.0001) %MON g__dynstat_g_wvel_max        =   0.0000000000000E+00
(PID.TID 0000.0001) %MON g__dynstat_g_wvel_min        =   0.0000000000000E+00
(PID.TID 0000.0001) %MON g__dynstat_g_wvel_mean       =   0.0000000000000E+00
(PID.TID 0000.0001) %MON g__dynstat_g_wvel_sd         =   0.0000000000000E+00
(PID.TID 0000.0001) %MON g__dynstat_g_wvel_del2       =   0.0000000000000E+00
(PID.TID 0000.0001) %MON g__dynstat_g_theta_max       =   0.0000000000000E+00
(PID.TID 0000.0001) %MON g__dynstat_g_theta_min       =   0.0000000000000E+00
(PID.TID 0000.0001) %MON g__dynstat_g_theta_mean      =   0.0000000000000E+00
(PID.TID 0000.0001) %MON g__dynstat_g_theta_sd        =   0.0000000000000E+00
(PID.TID 0000.0001) %MON g__dynstat_g_theta_del2      =   0.0000000000000E+00
(PID.TID 0000.0001) %MON g__dynstat_g_salt_max        =   0.0000000000000E+00
(PID.TID 0000.0001) %MON g__dynstat_g_salt_min        =   0.0000000000000E+00
(PID.TID 0000.0001) %MON g__dynstat_g_salt_mean       =   0.0000000000000E+00
(PID.TID 0000.0001) %MON g__dynstat_g_salt_sd         =   0.0000000000000E+00
(PID.TID 0000.0001) %MON g__dynstat_g_salt_del2       =   0.0000000000000E+00
(PID.TID 0000.0001) %MON g__dynstat_g_sst_max         =   0.0000000000000E+00
(PID.TID 0000.0001) %MON g__dynstat_g_sst_min         =   0.0000000000000E+00
(PID.TID 0000.0001) %MON g__dynstat_g_sst_mean        =   0.0000000000000E+00
(PID.TID 0000.0001) %MON g__dynstat_g_sst_sd          =   0.0000000000000E+00
(PID.TID 0000.0001) %MON g__dynstat_g_sst_del2        =   0.0000000000000E+00
(PID.TID 0000.0001) %MON g__dynstat_g_sss_max         =   0.0000000000000E+00
(PID.TID 0000.0001) %MON g__dynstat_g_sss_min         =   0.0000000000000E+00
(PID.TID 0000.0001) %MON g__dynstat_g_sss_mean        =   0.0000000000000E+00
(PID.TID 0000.0001) %MON g__dynstat_g_sss_sd          =   0.0000000000000E+00
(PID.TID 0000.0001) %MON g__dynstat_g_sss_del2        =   0.0000000000000E+00
(PID.TID 0000.0001) %MON g__extforcing_g_qnet_max     =   0.0000000000000E+00
(PID.TID 0000.0001) %MON g__extforcing_g_qnet_min     =   0.0000000000000E+00
(PID.TID 0000.0001) %MON g__extforcing_g_qnet_mean    =   0.0000000000000E+00
(PID.TID 0000.0001) %MON g__extforcing_g_qnet_sd      =   0.0000000000000E+00
(PID.TID 0000.0001) %MON g__extforcing_g_qnet_del2    =   0.0000000000000E+00
(PID.TID 0000.0001) %MON g__extforcing_g_empmr_max    =   0.0000000000000E+00
(PID.TID 0000.0001) %MON g__extforcing_g_empmr_min    =   0.0000000000000E+00
(PID.TID 0000.0001) %MON g__extforcing_g_empmr_mean   =   0.0000000000000E+00
(PID.TID 0000.0001) %MON g__extforcing_g_empmr_sd     =   0.0000000000000E+00
(PID.TID 0000.0001) %MON g__extforcing_g_empmr_del2   =   0.0000000000000E+00
(PID.TID 0000.0001) %MON g__extforcing_g_fu_max       =   0.0000000000000E+00
(PID.TID 0000.0001) %MON g__extforcing_g_fu_min       =   0.0000000000000E+00
(PID.TID 0000.0001) %MON g__extforcing_g_fu_mean      =   0.0000000000000E+00
(PID.TID 0000.0001) %MON g__extforcing_g_fu_sd        =   0.0000000000000E+00
(PID.TID 0000.0001) %MON g__extforcing_g_fu_del2      =   0.0000000000000E+00
(PID.TID 0000.0001) %MON g__extforcing_g_fv_max       =   0.0000000000000E+00
(PID.TID 0000.0001) %MON g__extforcing_g_fv_min       =   0.0000000000000E+00
(PID.TID 0000.0001) %MON g__extforcing_g_fv_mean      =   0.0000000000000E+00
(PID.TID 0000.0001) %MON g__extforcing_g_fv_sd        =   0.0000000000000E+00
(PID.TID 0000.0001) %MON g__extforcing_g_fv_del2      =   0.0000000000000E+00
(PID.TID 0000.0001) %MON g__g_vcfl_g_uvel_max         =   0.0000000000000E+00
(PID.TID 0000.0001) %MON g__g_vcfl_g_vvel_max         =   0.0000000000000E+00
(PID.TID 0000.0001) %MON g__g_vcfl_g_wvel_max         =   0.0000000000000E+00
(PID.TID 0000.0001) %MON g__g_vcfl_g_W_hf_max         =   0.0000000000000E+00
(PID.TID 0000.0001) // =======================================================
(PID.TID 0000.0001) // End MONITOR dynamic field statistics
(PID.TID 0000.0001) // =======================================================
 cg2d: Sum(rhs),rhsMax =   0.00000000000000E+00  0.00000000000000E+00
 cg2d: Sum(rhs),rhsMax =   4.72635819370737E-13  7.63411997016478E+00
(PID.TID 0000.0001) // =======================================================
(PID.TID 0000.0001) // Begin MONITOR dynamic field statistics
(PID.TID 0000.0001) // =======================================================
(PID.TID 0000.0001) %MON g__time_tsnumber             =                    46
(PID.TID 0000.0001) %MON g__time_secondsf             =   1.9872000000000E+06
(PID.TID 0000.0001) %MON g__dynstat_g_eta_max         =   0.0000000000000E+00
(PID.TID 0000.0001) %MON g__dynstat_g_eta_min         =   0.0000000000000E+00
(PID.TID 0000.0001) %MON g__dynstat_g_eta_mean        =   0.0000000000000E+00
(PID.TID 0000.0001) %MON g__dynstat_g_eta_sd          =   0.0000000000000E+00
(PID.TID 0000.0001) %MON g__dynstat_g_eta_del2        =   0.0000000000000E+00
(PID.TID 0000.0001) %MON g__dynstat_g_uvel_max        =   0.0000000000000E+00
(PID.TID 0000.0001) %MON g__dynstat_g_uvel_min        =   0.0000000000000E+00
(PID.TID 0000.0001) %MON g__dynstat_g_uvel_mean       =   0.0000000000000E+00
(PID.TID 0000.0001) %MON g__dynstat_g_uvel_sd         =   0.0000000000000E+00
(PID.TID 0000.0001) %MON g__dynstat_g_uvel_del2       =   0.0000000000000E+00
(PID.TID 0000.0001) %MON g__dynstat_g_vvel_max        =   0.0000000000000E+00
(PID.TID 0000.0001) %MON g__dynstat_g_vvel_min        =   0.0000000000000E+00
(PID.TID 0000.0001) %MON g__dynstat_g_vvel_mean       =   0.0000000000000E+00
(PID.TID 0000.0001) %MON g__dynstat_g_vvel_sd         =   0.0000000000000E+00
(PID.TID 0000.0001) %MON g__dynstat_g_vvel_del2       =   0.0000000000000E+00
(PID.TID 0000.0001) %MON g__dynstat_g_wvel_max        =   0.0000000000000E+00
(PID.TID 0000.0001) %MON g__dynstat_g_wvel_min        =   0.0000000000000E+00
(PID.TID 0000.0001) %MON g__dynstat_g_wvel_mean       =   0.0000000000000E+00
(PID.TID 0000.0001) %MON g__dynstat_g_wvel_sd         =   0.0000000000000E+00
(PID.TID 0000.0001) %MON g__dynstat_g_wvel_del2       =   0.0000000000000E+00
(PID.TID 0000.0001) %MON g__dynstat_g_theta_max       =   0.0000000000000E+00
(PID.TID 0000.0001) %MON g__dynstat_g_theta_min       =   0.0000000000000E+00
(PID.TID 0000.0001) %MON g__dynstat_g_theta_mean      =   0.0000000000000E+00
(PID.TID 0000.0001) %MON g__dynstat_g_theta_sd        =   0.0000000000000E+00
(PID.TID 0000.0001) %MON g__dynstat_g_theta_del2      =   0.0000000000000E+00
(PID.TID 0000.0001) %MON g__dynstat_g_salt_max        =   0.0000000000000E+00
(PID.TID 0000.0001) %MON g__dynstat_g_salt_min        =   0.0000000000000E+00
(PID.TID 0000.0001) %MON g__dynstat_g_salt_mean       =   0.0000000000000E+00
(PID.TID 0000.0001) %MON g__dynstat_g_salt_sd         =   0.0000000000000E+00
(PID.TID 0000.0001) %MON g__dynstat_g_salt_del2       =   0.0000000000000E+00
(PID.TID 0000.0001) %MON g__dynstat_g_sst_max         =   0.0000000000000E+00
(PID.TID 0000.0001) %MON g__dynstat_g_sst_min         =   0.0000000000000E+00
(PID.TID 0000.0001) %MON g__dynstat_g_sst_mean        =   0.0000000000000E+00
(PID.TID 0000.0001) %MON g__dynstat_g_sst_sd          =   0.0000000000000E+00
(PID.TID 0000.0001) %MON g__dynstat_g_sst_del2        =   0.0000000000000E+00
(PID.TID 0000.0001) %MON g__dynstat_g_sss_max         =   0.0000000000000E+00
(PID.TID 0000.0001) %MON g__dynstat_g_sss_min         =   0.0000000000000E+00
(PID.TID 0000.0001) %MON g__dynstat_g_sss_mean        =   0.0000000000000E+00
(PID.TID 0000.0001) %MON g__dynstat_g_sss_sd          =   0.0000000000000E+00
(PID.TID 0000.0001) %MON g__dynstat_g_sss_del2        =   0.0000000000000E+00
(PID.TID 0000.0001) %MON g__extforcing_g_qnet_max     =   0.0000000000000E+00
(PID.TID 0000.0001) %MON g__extforcing_g_qnet_min     =   0.0000000000000E+00
(PID.TID 0000.0001) %MON g__extforcing_g_qnet_mean    =   0.0000000000000E+00
(PID.TID 0000.0001) %MON g__extforcing_g_qnet_sd      =   0.0000000000000E+00
(PID.TID 0000.0001) %MON g__extforcing_g_qnet_del2    =   0.0000000000000E+00
(PID.TID 0000.0001) %MON g__extforcing_g_empmr_max    =   0.0000000000000E+00
(PID.TID 0000.0001) %MON g__extforcing_g_empmr_min    =   0.0000000000000E+00
(PID.TID 0000.0001) %MON g__extforcing_g_empmr_mean   =   0.0000000000000E+00
(PID.TID 0000.0001) %MON g__extforcing_g_empmr_sd     =   0.0000000000000E+00
(PID.TID 0000.0001) %MON g__extforcing_g_empmr_del2   =   0.0000000000000E+00
(PID.TID 0000.0001) %MON g__extforcing_g_fu_max       =   0.0000000000000E+00
(PID.TID 0000.0001) %MON g__extforcing_g_fu_min       =   0.0000000000000E+00
(PID.TID 0000.0001) %MON g__extforcing_g_fu_mean      =   0.0000000000000E+00
(PID.TID 0000.0001) %MON g__extforcing_g_fu_sd        =   0.0000000000000E+00
(PID.TID 0000.0001) %MON g__extforcing_g_fu_del2      =   0.0000000000000E+00
(PID.TID 0000.0001) %MON g__extforcing_g_fv_max       =   0.0000000000000E+00
(PID.TID 0000.0001) %MON g__extforcing_g_fv_min       =   0.0000000000000E+00
(PID.TID 0000.0001) %MON g__extforcing_g_fv_mean      =   0.0000000000000E+00
(PID.TID 0000.0001) %MON g__extforcing_g_fv_sd        =   0.0000000000000E+00
(PID.TID 0000.0001) %MON g__extforcing_g_fv_del2      =   0.0000000000000E+00
(PID.TID 0000.0001) %MON g__g_vcfl_g_uvel_max         =   0.0000000000000E+00
(PID.TID 0000.0001) %MON g__g_vcfl_g_vvel_max         =   0.0000000000000E+00
(PID.TID 0000.0001) %MON g__g_vcfl_g_wvel_max         =   0.0000000000000E+00
(PID.TID 0000.0001) %MON g__g_vcfl_g_W_hf_max         =   0.0000000000000E+00
(PID.TID 0000.0001) // =======================================================
(PID.TID 0000.0001) // End MONITOR dynamic field statistics
(PID.TID 0000.0001) // =======================================================
 cg2d: Sum(rhs),rhsMax =   0.00000000000000E+00  0.00000000000000E+00
 cg2d: Sum(rhs),rhsMax =   2.19706197679415E-13  7.83757970972503E+00
(PID.TID 0000.0001) // =======================================================
(PID.TID 0000.0001) // Begin MONITOR dynamic field statistics
(PID.TID 0000.0001) // =======================================================
(PID.TID 0000.0001) %MON g__time_tsnumber             =                    47
(PID.TID 0000.0001) %MON g__time_secondsf             =   2.0304000000000E+06
(PID.TID 0000.0001) %MON g__dynstat_g_eta_max         =   0.0000000000000E+00
(PID.TID 0000.0001) %MON g__dynstat_g_eta_min         =   0.0000000000000E+00
(PID.TID 0000.0001) %MON g__dynstat_g_eta_mean        =   0.0000000000000E+00
(PID.TID 0000.0001) %MON g__dynstat_g_eta_sd          =   0.0000000000000E+00
(PID.TID 0000.0001) %MON g__dynstat_g_eta_del2        =   0.0000000000000E+00
(PID.TID 0000.0001) %MON g__dynstat_g_uvel_max        =   0.0000000000000E+00
(PID.TID 0000.0001) %MON g__dynstat_g_uvel_min        =   0.0000000000000E+00
(PID.TID 0000.0001) %MON g__dynstat_g_uvel_mean       =   0.0000000000000E+00
(PID.TID 0000.0001) %MON g__dynstat_g_uvel_sd         =   0.0000000000000E+00
(PID.TID 0000.0001) %MON g__dynstat_g_uvel_del2       =   0.0000000000000E+00
(PID.TID 0000.0001) %MON g__dynstat_g_vvel_max        =   0.0000000000000E+00
(PID.TID 0000.0001) %MON g__dynstat_g_vvel_min        =   0.0000000000000E+00
(PID.TID 0000.0001) %MON g__dynstat_g_vvel_mean       =   0.0000000000000E+00
(PID.TID 0000.0001) %MON g__dynstat_g_vvel_sd         =   0.0000000000000E+00
(PID.TID 0000.0001) %MON g__dynstat_g_vvel_del2       =   0.0000000000000E+00
(PID.TID 0000.0001) %MON g__dynstat_g_wvel_max        =   0.0000000000000E+00
(PID.TID 0000.0001) %MON g__dynstat_g_wvel_min        =   0.0000000000000E+00
(PID.TID 0000.0001) %MON g__dynstat_g_wvel_mean       =   0.0000000000000E+00
(PID.TID 0000.0001) %MON g__dynstat_g_wvel_sd         =   0.0000000000000E+00
(PID.TID 0000.0001) %MON g__dynstat_g_wvel_del2       =   0.0000000000000E+00
(PID.TID 0000.0001) %MON g__dynstat_g_theta_max       =   0.0000000000000E+00
(PID.TID 0000.0001) %MON g__dynstat_g_theta_min       =   0.0000000000000E+00
(PID.TID 0000.0001) %MON g__dynstat_g_theta_mean      =   0.0000000000000E+00
(PID.TID 0000.0001) %MON g__dynstat_g_theta_sd        =   0.0000000000000E+00
(PID.TID 0000.0001) %MON g__dynstat_g_theta_del2      =   0.0000000000000E+00
(PID.TID 0000.0001) %MON g__dynstat_g_salt_max        =   0.0000000000000E+00
(PID.TID 0000.0001) %MON g__dynstat_g_salt_min        =   0.0000000000000E+00
(PID.TID 0000.0001) %MON g__dynstat_g_salt_mean       =   0.0000000000000E+00
(PID.TID 0000.0001) %MON g__dynstat_g_salt_sd         =   0.0000000000000E+00
(PID.TID 0000.0001) %MON g__dynstat_g_salt_del2       =   0.0000000000000E+00
(PID.TID 0000.0001) %MON g__dynstat_g_sst_max         =   0.0000000000000E+00
(PID.TID 0000.0001) %MON g__dynstat_g_sst_min         =   0.0000000000000E+00
(PID.TID 0000.0001) %MON g__dynstat_g_sst_mean        =   0.0000000000000E+00
(PID.TID 0000.0001) %MON g__dynstat_g_sst_sd          =   0.0000000000000E+00
(PID.TID 0000.0001) %MON g__dynstat_g_sst_del2        =   0.0000000000000E+00
(PID.TID 0000.0001) %MON g__dynstat_g_sss_max         =   0.0000000000000E+00
(PID.TID 0000.0001) %MON g__dynstat_g_sss_min         =   0.0000000000000E+00
(PID.TID 0000.0001) %MON g__dynstat_g_sss_mean        =   0.0000000000000E+00
(PID.TID 0000.0001) %MON g__dynstat_g_sss_sd          =   0.0000000000000E+00
(PID.TID 0000.0001) %MON g__dynstat_g_sss_del2        =   0.0000000000000E+00
(PID.TID 0000.0001) %MON g__extforcing_g_qnet_max     =   0.0000000000000E+00
(PID.TID 0000.0001) %MON g__extforcing_g_qnet_min     =   0.0000000000000E+00
(PID.TID 0000.0001) %MON g__extforcing_g_qnet_mean    =   0.0000000000000E+00
(PID.TID 0000.0001) %MON g__extforcing_g_qnet_sd      =   0.0000000000000E+00
(PID.TID 0000.0001) %MON g__extforcing_g_qnet_del2    =   0.0000000000000E+00
(PID.TID 0000.0001) %MON g__extforcing_g_empmr_max    =   0.0000000000000E+00
(PID.TID 0000.0001) %MON g__extforcing_g_empmr_min    =   0.0000000000000E+00
(PID.TID 0000.0001) %MON g__extforcing_g_empmr_mean   =   0.0000000000000E+00
(PID.TID 0000.0001) %MON g__extforcing_g_empmr_sd     =   0.0000000000000E+00
(PID.TID 0000.0001) %MON g__extforcing_g_empmr_del2   =   0.0000000000000E+00
(PID.TID 0000.0001) %MON g__extforcing_g_fu_max       =   0.0000000000000E+00
(PID.TID 0000.0001) %MON g__extforcing_g_fu_min       =   0.0000000000000E+00
(PID.TID 0000.0001) %MON g__extforcing_g_fu_mean      =   0.0000000000000E+00
(PID.TID 0000.0001) %MON g__extforcing_g_fu_sd        =   0.0000000000000E+00
(PID.TID 0000.0001) %MON g__extforcing_g_fu_del2      =   0.0000000000000E+00
(PID.TID 0000.0001) %MON g__extforcing_g_fv_max       =   0.0000000000000E+00
(PID.TID 0000.0001) %MON g__extforcing_g_fv_min       =   0.0000000000000E+00
(PID.TID 0000.0001) %MON g__extforcing_g_fv_mean      =   0.0000000000000E+00
(PID.TID 0000.0001) %MON g__extforcing_g_fv_sd        =   0.0000000000000E+00
(PID.TID 0000.0001) %MON g__extforcing_g_fv_del2      =   0.0000000000000E+00
(PID.TID 0000.0001) %MON g__g_vcfl_g_uvel_max         =   0.0000000000000E+00
(PID.TID 0000.0001) %MON g__g_vcfl_g_vvel_max         =   0.0000000000000E+00
(PID.TID 0000.0001) %MON g__g_vcfl_g_wvel_max         =   0.0000000000000E+00
(PID.TID 0000.0001) %MON g__g_vcfl_g_W_hf_max         =   0.0000000000000E+00
(PID.TID 0000.0001) // =======================================================
(PID.TID 0000.0001) // End MONITOR dynamic field statistics
(PID.TID 0000.0001) // =======================================================
 cg2d: Sum(rhs),rhsMax =   0.00000000000000E+00  0.00000000000000E+00
 cg2d: Sum(rhs),rhsMax =   3.14401282786037E-14  7.97661649749666E+00
(PID.TID 0000.0001) // =======================================================
(PID.TID 0000.0001) // Begin MONITOR dynamic field statistics
(PID.TID 0000.0001) // =======================================================
(PID.TID 0000.0001) %MON g__time_tsnumber             =                    48
(PID.TID 0000.0001) %MON g__time_secondsf             =   2.0736000000000E+06
(PID.TID 0000.0001) %MON g__dynstat_g_eta_max         =   0.0000000000000E+00
(PID.TID 0000.0001) %MON g__dynstat_g_eta_min         =   0.0000000000000E+00
(PID.TID 0000.0001) %MON g__dynstat_g_eta_mean        =   0.0000000000000E+00
(PID.TID 0000.0001) %MON g__dynstat_g_eta_sd          =   0.0000000000000E+00
(PID.TID 0000.0001) %MON g__dynstat_g_eta_del2        =   0.0000000000000E+00
(PID.TID 0000.0001) %MON g__dynstat_g_uvel_max        =   0.0000000000000E+00
(PID.TID 0000.0001) %MON g__dynstat_g_uvel_min        =   0.0000000000000E+00
(PID.TID 0000.0001) %MON g__dynstat_g_uvel_mean       =   0.0000000000000E+00
(PID.TID 0000.0001) %MON g__dynstat_g_uvel_sd         =   0.0000000000000E+00
(PID.TID 0000.0001) %MON g__dynstat_g_uvel_del2       =   0.0000000000000E+00
(PID.TID 0000.0001) %MON g__dynstat_g_vvel_max        =   0.0000000000000E+00
(PID.TID 0000.0001) %MON g__dynstat_g_vvel_min        =   0.0000000000000E+00
(PID.TID 0000.0001) %MON g__dynstat_g_vvel_mean       =   0.0000000000000E+00
(PID.TID 0000.0001) %MON g__dynstat_g_vvel_sd         =   0.0000000000000E+00
(PID.TID 0000.0001) %MON g__dynstat_g_vvel_del2       =   0.0000000000000E+00
(PID.TID 0000.0001) %MON g__dynstat_g_wvel_max        =   0.0000000000000E+00
(PID.TID 0000.0001) %MON g__dynstat_g_wvel_min        =   0.0000000000000E+00
(PID.TID 0000.0001) %MON g__dynstat_g_wvel_mean       =   0.0000000000000E+00
(PID.TID 0000.0001) %MON g__dynstat_g_wvel_sd         =   0.0000000000000E+00
(PID.TID 0000.0001) %MON g__dynstat_g_wvel_del2       =   0.0000000000000E+00
(PID.TID 0000.0001) %MON g__dynstat_g_theta_max       =   0.0000000000000E+00
(PID.TID 0000.0001) %MON g__dynstat_g_theta_min       =   0.0000000000000E+00
(PID.TID 0000.0001) %MON g__dynstat_g_theta_mean      =   0.0000000000000E+00
(PID.TID 0000.0001) %MON g__dynstat_g_theta_sd        =   0.0000000000000E+00
(PID.TID 0000.0001) %MON g__dynstat_g_theta_del2      =   0.0000000000000E+00
(PID.TID 0000.0001) %MON g__dynstat_g_salt_max        =   0.0000000000000E+00
(PID.TID 0000.0001) %MON g__dynstat_g_salt_min        =   0.0000000000000E+00
(PID.TID 0000.0001) %MON g__dynstat_g_salt_mean       =   0.0000000000000E+00
(PID.TID 0000.0001) %MON g__dynstat_g_salt_sd         =   0.0000000000000E+00
(PID.TID 0000.0001) %MON g__dynstat_g_salt_del2       =   0.0000000000000E+00
(PID.TID 0000.0001) %MON g__dynstat_g_sst_max         =   0.0000000000000E+00
(PID.TID 0000.0001) %MON g__dynstat_g_sst_min         =   0.0000000000000E+00
(PID.TID 0000.0001) %MON g__dynstat_g_sst_mean        =   0.0000000000000E+00
(PID.TID 0000.0001) %MON g__dynstat_g_sst_sd          =   0.0000000000000E+00
(PID.TID 0000.0001) %MON g__dynstat_g_sst_del2        =   0.0000000000000E+00
(PID.TID 0000.0001) %MON g__dynstat_g_sss_max         =   0.0000000000000E+00
(PID.TID 0000.0001) %MON g__dynstat_g_sss_min         =   0.0000000000000E+00
(PID.TID 0000.0001) %MON g__dynstat_g_sss_mean        =   0.0000000000000E+00
(PID.TID 0000.0001) %MON g__dynstat_g_sss_sd          =   0.0000000000000E+00
(PID.TID 0000.0001) %MON g__dynstat_g_sss_del2        =   0.0000000000000E+00
(PID.TID 0000.0001) %MON g__extforcing_g_qnet_max     =   0.0000000000000E+00
(PID.TID 0000.0001) %MON g__extforcing_g_qnet_min     =   0.0000000000000E+00
(PID.TID 0000.0001) %MON g__extforcing_g_qnet_mean    =   0.0000000000000E+00
(PID.TID 0000.0001) %MON g__extforcing_g_qnet_sd      =   0.0000000000000E+00
(PID.TID 0000.0001) %MON g__extforcing_g_qnet_del2    =   0.0000000000000E+00
(PID.TID 0000.0001) %MON g__extforcing_g_empmr_max    =   0.0000000000000E+00
(PID.TID 0000.0001) %MON g__extforcing_g_empmr_min    =   0.0000000000000E+00
(PID.TID 0000.0001) %MON g__extforcing_g_empmr_mean   =   0.0000000000000E+00
(PID.TID 0000.0001) %MON g__extforcing_g_empmr_sd     =   0.0000000000000E+00
(PID.TID 0000.0001) %MON g__extforcing_g_empmr_del2   =   0.0000000000000E+00
(PID.TID 0000.0001) %MON g__extforcing_g_fu_max       =   0.0000000000000E+00
(PID.TID 0000.0001) %MON g__extforcing_g_fu_min       =   0.0000000000000E+00
(PID.TID 0000.0001) %MON g__extforcing_g_fu_mean      =   0.0000000000000E+00
(PID.TID 0000.0001) %MON g__extforcing_g_fu_sd        =   0.0000000000000E+00
(PID.TID 0000.0001) %MON g__extforcing_g_fu_del2      =   0.0000000000000E+00
(PID.TID 0000.0001) %MON g__extforcing_g_fv_max       =   0.0000000000000E+00
(PID.TID 0000.0001) %MON g__extforcing_g_fv_min       =   0.0000000000000E+00
(PID.TID 0000.0001) %MON g__extforcing_g_fv_mean      =   0.0000000000000E+00
(PID.TID 0000.0001) %MON g__extforcing_g_fv_sd        =   0.0000000000000E+00
(PID.TID 0000.0001) %MON g__extforcing_g_fv_del2      =   0.0000000000000E+00
(PID.TID 0000.0001) %MON g__g_vcfl_g_uvel_max         =   0.0000000000000E+00
(PID.TID 0000.0001) %MON g__g_vcfl_g_vvel_max         =   0.0000000000000E+00
(PID.TID 0000.0001) %MON g__g_vcfl_g_wvel_max         =   0.0000000000000E+00
(PID.TID 0000.0001) %MON g__g_vcfl_g_W_hf_max         =   0.0000000000000E+00
(PID.TID 0000.0001) // =======================================================
(PID.TID 0000.0001) // End MONITOR dynamic field statistics
(PID.TID 0000.0001) // =======================================================
 cg2d: Sum(rhs),rhsMax =   0.00000000000000E+00  0.00000000000000E+00
 cg2d: Sum(rhs),rhsMax =   1.43003664465624E-13  8.05769528537580E+00
(PID.TID 0000.0001) // =======================================================
(PID.TID 0000.0001) // Begin MONITOR dynamic field statistics
(PID.TID 0000.0001) // =======================================================
(PID.TID 0000.0001) %MON g__time_tsnumber             =                    49
(PID.TID 0000.0001) %MON g__time_secondsf             =   2.1168000000000E+06
(PID.TID 0000.0001) %MON g__dynstat_g_eta_max         =   0.0000000000000E+00
(PID.TID 0000.0001) %MON g__dynstat_g_eta_min         =   0.0000000000000E+00
(PID.TID 0000.0001) %MON g__dynstat_g_eta_mean        =   0.0000000000000E+00
(PID.TID 0000.0001) %MON g__dynstat_g_eta_sd          =   0.0000000000000E+00
(PID.TID 0000.0001) %MON g__dynstat_g_eta_del2        =   0.0000000000000E+00
(PID.TID 0000.0001) %MON g__dynstat_g_uvel_max        =   0.0000000000000E+00
(PID.TID 0000.0001) %MON g__dynstat_g_uvel_min        =   0.0000000000000E+00
(PID.TID 0000.0001) %MON g__dynstat_g_uvel_mean       =   0.0000000000000E+00
(PID.TID 0000.0001) %MON g__dynstat_g_uvel_sd         =   0.0000000000000E+00
(PID.TID 0000.0001) %MON g__dynstat_g_uvel_del2       =   0.0000000000000E+00
(PID.TID 0000.0001) %MON g__dynstat_g_vvel_max        =   0.0000000000000E+00
(PID.TID 0000.0001) %MON g__dynstat_g_vvel_min        =   0.0000000000000E+00
(PID.TID 0000.0001) %MON g__dynstat_g_vvel_mean       =   0.0000000000000E+00
(PID.TID 0000.0001) %MON g__dynstat_g_vvel_sd         =   0.0000000000000E+00
(PID.TID 0000.0001) %MON g__dynstat_g_vvel_del2       =   0.0000000000000E+00
(PID.TID 0000.0001) %MON g__dynstat_g_wvel_max        =   0.0000000000000E+00
(PID.TID 0000.0001) %MON g__dynstat_g_wvel_min        =   0.0000000000000E+00
(PID.TID 0000.0001) %MON g__dynstat_g_wvel_mean       =   0.0000000000000E+00
(PID.TID 0000.0001) %MON g__dynstat_g_wvel_sd         =   0.0000000000000E+00
(PID.TID 0000.0001) %MON g__dynstat_g_wvel_del2       =   0.0000000000000E+00
(PID.TID 0000.0001) %MON g__dynstat_g_theta_max       =   0.0000000000000E+00
(PID.TID 0000.0001) %MON g__dynstat_g_theta_min       =   0.0000000000000E+00
(PID.TID 0000.0001) %MON g__dynstat_g_theta_mean      =   0.0000000000000E+00
(PID.TID 0000.0001) %MON g__dynstat_g_theta_sd        =   0.0000000000000E+00
(PID.TID 0000.0001) %MON g__dynstat_g_theta_del2      =   0.0000000000000E+00
(PID.TID 0000.0001) %MON g__dynstat_g_salt_max        =   0.0000000000000E+00
(PID.TID 0000.0001) %MON g__dynstat_g_salt_min        =   0.0000000000000E+00
(PID.TID 0000.0001) %MON g__dynstat_g_salt_mean       =   0.0000000000000E+00
(PID.TID 0000.0001) %MON g__dynstat_g_salt_sd         =   0.0000000000000E+00
(PID.TID 0000.0001) %MON g__dynstat_g_salt_del2       =   0.0000000000000E+00
(PID.TID 0000.0001) %MON g__dynstat_g_sst_max         =   0.0000000000000E+00
(PID.TID 0000.0001) %MON g__dynstat_g_sst_min         =   0.0000000000000E+00
(PID.TID 0000.0001) %MON g__dynstat_g_sst_mean        =   0.0000000000000E+00
(PID.TID 0000.0001) %MON g__dynstat_g_sst_sd          =   0.0000000000000E+00
(PID.TID 0000.0001) %MON g__dynstat_g_sst_del2        =   0.0000000000000E+00
(PID.TID 0000.0001) %MON g__dynstat_g_sss_max         =   0.0000000000000E+00
(PID.TID 0000.0001) %MON g__dynstat_g_sss_min         =   0.0000000000000E+00
(PID.TID 0000.0001) %MON g__dynstat_g_sss_mean        =   0.0000000000000E+00
(PID.TID 0000.0001) %MON g__dynstat_g_sss_sd          =   0.0000000000000E+00
(PID.TID 0000.0001) %MON g__dynstat_g_sss_del2        =   0.0000000000000E+00
(PID.TID 0000.0001) %MON g__extforcing_g_qnet_max     =   0.0000000000000E+00
(PID.TID 0000.0001) %MON g__extforcing_g_qnet_min     =   0.0000000000000E+00
(PID.TID 0000.0001) %MON g__extforcing_g_qnet_mean    =   0.0000000000000E+00
(PID.TID 0000.0001) %MON g__extforcing_g_qnet_sd      =   0.0000000000000E+00
(PID.TID 0000.0001) %MON g__extforcing_g_qnet_del2    =   0.0000000000000E+00
(PID.TID 0000.0001) %MON g__extforcing_g_empmr_max    =   0.0000000000000E+00
(PID.TID 0000.0001) %MON g__extforcing_g_empmr_min    =   0.0000000000000E+00
(PID.TID 0000.0001) %MON g__extforcing_g_empmr_mean   =   0.0000000000000E+00
(PID.TID 0000.0001) %MON g__extforcing_g_empmr_sd     =   0.0000000000000E+00
(PID.TID 0000.0001) %MON g__extforcing_g_empmr_del2   =   0.0000000000000E+00
(PID.TID 0000.0001) %MON g__extforcing_g_fu_max       =   0.0000000000000E+00
(PID.TID 0000.0001) %MON g__extforcing_g_fu_min       =   0.0000000000000E+00
(PID.TID 0000.0001) %MON g__extforcing_g_fu_mean      =   0.0000000000000E+00
(PID.TID 0000.0001) %MON g__extforcing_g_fu_sd        =   0.0000000000000E+00
(PID.TID 0000.0001) %MON g__extforcing_g_fu_del2      =   0.0000000000000E+00
(PID.TID 0000.0001) %MON g__extforcing_g_fv_max       =   0.0000000000000E+00
(PID.TID 0000.0001) %MON g__extforcing_g_fv_min       =   0.0000000000000E+00
(PID.TID 0000.0001) %MON g__extforcing_g_fv_mean      =   0.0000000000000E+00
(PID.TID 0000.0001) %MON g__extforcing_g_fv_sd        =   0.0000000000000E+00
(PID.TID 0000.0001) %MON g__extforcing_g_fv_del2      =   0.0000000000000E+00
(PID.TID 0000.0001) %MON g__g_vcfl_g_uvel_max         =   0.0000000000000E+00
(PID.TID 0000.0001) %MON g__g_vcfl_g_vvel_max         =   0.0000000000000E+00
(PID.TID 0000.0001) %MON g__g_vcfl_g_wvel_max         =   0.0000000000000E+00
(PID.TID 0000.0001) %MON g__g_vcfl_g_W_hf_max         =   0.0000000000000E+00
(PID.TID 0000.0001) // =======================================================
(PID.TID 0000.0001) // End MONITOR dynamic field statistics
(PID.TID 0000.0001) // =======================================================
 cg2d: Sum(rhs),rhsMax =   0.00000000000000E+00  0.00000000000000E+00
 cg2d: Sum(rhs),rhsMax =   2.72538935863764E-13  8.09041694797476E+00
(PID.TID 0000.0001) // =======================================================
(PID.TID 0000.0001) // Begin MONITOR dynamic field statistics
(PID.TID 0000.0001) // =======================================================
(PID.TID 0000.0001) %MON g__time_tsnumber             =                    50
(PID.TID 0000.0001) %MON g__time_secondsf             =   2.1600000000000E+06
(PID.TID 0000.0001) %MON g__dynstat_g_eta_max         =   0.0000000000000E+00
(PID.TID 0000.0001) %MON g__dynstat_g_eta_min         =   0.0000000000000E+00
(PID.TID 0000.0001) %MON g__dynstat_g_eta_mean        =   0.0000000000000E+00
(PID.TID 0000.0001) %MON g__dynstat_g_eta_sd          =   0.0000000000000E+00
(PID.TID 0000.0001) %MON g__dynstat_g_eta_del2        =   0.0000000000000E+00
(PID.TID 0000.0001) %MON g__dynstat_g_uvel_max        =   0.0000000000000E+00
(PID.TID 0000.0001) %MON g__dynstat_g_uvel_min        =   0.0000000000000E+00
(PID.TID 0000.0001) %MON g__dynstat_g_uvel_mean       =   0.0000000000000E+00
(PID.TID 0000.0001) %MON g__dynstat_g_uvel_sd         =   0.0000000000000E+00
(PID.TID 0000.0001) %MON g__dynstat_g_uvel_del2       =   0.0000000000000E+00
(PID.TID 0000.0001) %MON g__dynstat_g_vvel_max        =   0.0000000000000E+00
(PID.TID 0000.0001) %MON g__dynstat_g_vvel_min        =   0.0000000000000E+00
(PID.TID 0000.0001) %MON g__dynstat_g_vvel_mean       =   0.0000000000000E+00
(PID.TID 0000.0001) %MON g__dynstat_g_vvel_sd         =   0.0000000000000E+00
(PID.TID 0000.0001) %MON g__dynstat_g_vvel_del2       =   0.0000000000000E+00
(PID.TID 0000.0001) %MON g__dynstat_g_wvel_max        =   0.0000000000000E+00
(PID.TID 0000.0001) %MON g__dynstat_g_wvel_min        =   0.0000000000000E+00
(PID.TID 0000.0001) %MON g__dynstat_g_wvel_mean       =   0.0000000000000E+00
(PID.TID 0000.0001) %MON g__dynstat_g_wvel_sd         =   0.0000000000000E+00
(PID.TID 0000.0001) %MON g__dynstat_g_wvel_del2       =   0.0000000000000E+00
(PID.TID 0000.0001) %MON g__dynstat_g_theta_max       =   0.0000000000000E+00
(PID.TID 0000.0001) %MON g__dynstat_g_theta_min       =   0.0000000000000E+00
(PID.TID 0000.0001) %MON g__dynstat_g_theta_mean      =   0.0000000000000E+00
(PID.TID 0000.0001) %MON g__dynstat_g_theta_sd        =   0.0000000000000E+00
(PID.TID 0000.0001) %MON g__dynstat_g_theta_del2      =   0.0000000000000E+00
(PID.TID 0000.0001) %MON g__dynstat_g_salt_max        =   0.0000000000000E+00
(PID.TID 0000.0001) %MON g__dynstat_g_salt_min        =   0.0000000000000E+00
(PID.TID 0000.0001) %MON g__dynstat_g_salt_mean       =   0.0000000000000E+00
(PID.TID 0000.0001) %MON g__dynstat_g_salt_sd         =   0.0000000000000E+00
(PID.TID 0000.0001) %MON g__dynstat_g_salt_del2       =   0.0000000000000E+00
(PID.TID 0000.0001) %MON g__dynstat_g_sst_max         =   0.0000000000000E+00
(PID.TID 0000.0001) %MON g__dynstat_g_sst_min         =   0.0000000000000E+00
(PID.TID 0000.0001) %MON g__dynstat_g_sst_mean        =   0.0000000000000E+00
(PID.TID 0000.0001) %MON g__dynstat_g_sst_sd          =   0.0000000000000E+00
(PID.TID 0000.0001) %MON g__dynstat_g_sst_del2        =   0.0000000000000E+00
(PID.TID 0000.0001) %MON g__dynstat_g_sss_max         =   0.0000000000000E+00
(PID.TID 0000.0001) %MON g__dynstat_g_sss_min         =   0.0000000000000E+00
(PID.TID 0000.0001) %MON g__dynstat_g_sss_mean        =   0.0000000000000E+00
(PID.TID 0000.0001) %MON g__dynstat_g_sss_sd          =   0.0000000000000E+00
(PID.TID 0000.0001) %MON g__dynstat_g_sss_del2        =   0.0000000000000E+00
(PID.TID 0000.0001) %MON g__extforcing_g_qnet_max     =   0.0000000000000E+00
(PID.TID 0000.0001) %MON g__extforcing_g_qnet_min     =   0.0000000000000E+00
(PID.TID 0000.0001) %MON g__extforcing_g_qnet_mean    =   0.0000000000000E+00
(PID.TID 0000.0001) %MON g__extforcing_g_qnet_sd      =   0.0000000000000E+00
(PID.TID 0000.0001) %MON g__extforcing_g_qnet_del2    =   0.0000000000000E+00
(PID.TID 0000.0001) %MON g__extforcing_g_empmr_max    =   0.0000000000000E+00
(PID.TID 0000.0001) %MON g__extforcing_g_empmr_min    =   0.0000000000000E+00
(PID.TID 0000.0001) %MON g__extforcing_g_empmr_mean   =   0.0000000000000E+00
(PID.TID 0000.0001) %MON g__extforcing_g_empmr_sd     =   0.0000000000000E+00
(PID.TID 0000.0001) %MON g__extforcing_g_empmr_del2   =   0.0000000000000E+00
(PID.TID 0000.0001) %MON g__extforcing_g_fu_max       =   0.0000000000000E+00
(PID.TID 0000.0001) %MON g__extforcing_g_fu_min       =   0.0000000000000E+00
(PID.TID 0000.0001) %MON g__extforcing_g_fu_mean      =   0.0000000000000E+00
(PID.TID 0000.0001) %MON g__extforcing_g_fu_sd        =   0.0000000000000E+00
(PID.TID 0000.0001) %MON g__extforcing_g_fu_del2      =   0.0000000000000E+00
(PID.TID 0000.0001) %MON g__extforcing_g_fv_max       =   0.0000000000000E+00
(PID.TID 0000.0001) %MON g__extforcing_g_fv_min       =   0.0000000000000E+00
(PID.TID 0000.0001) %MON g__extforcing_g_fv_mean      =   0.0000000000000E+00
(PID.TID 0000.0001) %MON g__extforcing_g_fv_sd        =   0.0000000000000E+00
(PID.TID 0000.0001) %MON g__extforcing_g_fv_del2      =   0.0000000000000E+00
(PID.TID 0000.0001) %MON g__g_vcfl_g_uvel_max         =   0.0000000000000E+00
(PID.TID 0000.0001) %MON g__g_vcfl_g_vvel_max         =   0.0000000000000E+00
(PID.TID 0000.0001) %MON g__g_vcfl_g_wvel_max         =   0.0000000000000E+00
(PID.TID 0000.0001) %MON g__g_vcfl_g_W_hf_max         =   0.0000000000000E+00
(PID.TID 0000.0001) // =======================================================
(PID.TID 0000.0001) // End MONITOR dynamic field statistics
(PID.TID 0000.0001) // =======================================================
 myIter=  50
(PID.TID 0000.0001) // Model state written, timestep        50
(PID.TID 0000.0001) 
 cg2d: Sum(rhs),rhsMax =   0.00000000000000E+00  0.00000000000000E+00
 cg2d: Sum(rhs),rhsMax =   3.17079695832945E-13  8.08616437912500E+00
(PID.TID 0000.0001) // =======================================================
(PID.TID 0000.0001) // Begin MONITOR dynamic field statistics
(PID.TID 0000.0001) // =======================================================
(PID.TID 0000.0001) %MON g__time_tsnumber             =                    51
(PID.TID 0000.0001) %MON g__time_secondsf             =   2.2032000000000E+06
(PID.TID 0000.0001) %MON g__dynstat_g_eta_max         =   0.0000000000000E+00
(PID.TID 0000.0001) %MON g__dynstat_g_eta_min         =   0.0000000000000E+00
(PID.TID 0000.0001) %MON g__dynstat_g_eta_mean        =   0.0000000000000E+00
(PID.TID 0000.0001) %MON g__dynstat_g_eta_sd          =   0.0000000000000E+00
(PID.TID 0000.0001) %MON g__dynstat_g_eta_del2        =   0.0000000000000E+00
(PID.TID 0000.0001) %MON g__dynstat_g_uvel_max        =   0.0000000000000E+00
(PID.TID 0000.0001) %MON g__dynstat_g_uvel_min        =   0.0000000000000E+00
(PID.TID 0000.0001) %MON g__dynstat_g_uvel_mean       =   0.0000000000000E+00
(PID.TID 0000.0001) %MON g__dynstat_g_uvel_sd         =   0.0000000000000E+00
(PID.TID 0000.0001) %MON g__dynstat_g_uvel_del2       =   0.0000000000000E+00
(PID.TID 0000.0001) %MON g__dynstat_g_vvel_max        =   0.0000000000000E+00
(PID.TID 0000.0001) %MON g__dynstat_g_vvel_min        =   0.0000000000000E+00
(PID.TID 0000.0001) %MON g__dynstat_g_vvel_mean       =   0.0000000000000E+00
(PID.TID 0000.0001) %MON g__dynstat_g_vvel_sd         =   0.0000000000000E+00
(PID.TID 0000.0001) %MON g__dynstat_g_vvel_del2       =   0.0000000000000E+00
(PID.TID 0000.0001) %MON g__dynstat_g_wvel_max        =   0.0000000000000E+00
(PID.TID 0000.0001) %MON g__dynstat_g_wvel_min        =   0.0000000000000E+00
(PID.TID 0000.0001) %MON g__dynstat_g_wvel_mean       =   0.0000000000000E+00
(PID.TID 0000.0001) %MON g__dynstat_g_wvel_sd         =   0.0000000000000E+00
(PID.TID 0000.0001) %MON g__dynstat_g_wvel_del2       =   0.0000000000000E+00
(PID.TID 0000.0001) %MON g__dynstat_g_theta_max       =   0.0000000000000E+00
(PID.TID 0000.0001) %MON g__dynstat_g_theta_min       =   0.0000000000000E+00
(PID.TID 0000.0001) %MON g__dynstat_g_theta_mean      =   0.0000000000000E+00
(PID.TID 0000.0001) %MON g__dynstat_g_theta_sd        =   0.0000000000000E+00
(PID.TID 0000.0001) %MON g__dynstat_g_theta_del2      =   0.0000000000000E+00
(PID.TID 0000.0001) %MON g__dynstat_g_salt_max        =   0.0000000000000E+00
(PID.TID 0000.0001) %MON g__dynstat_g_salt_min        =   0.0000000000000E+00
(PID.TID 0000.0001) %MON g__dynstat_g_salt_mean       =   0.0000000000000E+00
(PID.TID 0000.0001) %MON g__dynstat_g_salt_sd         =   0.0000000000000E+00
(PID.TID 0000.0001) %MON g__dynstat_g_salt_del2       =   0.0000000000000E+00
(PID.TID 0000.0001) %MON g__dynstat_g_sst_max         =   0.0000000000000E+00
(PID.TID 0000.0001) %MON g__dynstat_g_sst_min         =   0.0000000000000E+00
(PID.TID 0000.0001) %MON g__dynstat_g_sst_mean        =   0.0000000000000E+00
(PID.TID 0000.0001) %MON g__dynstat_g_sst_sd          =   0.0000000000000E+00
(PID.TID 0000.0001) %MON g__dynstat_g_sst_del2        =   0.0000000000000E+00
(PID.TID 0000.0001) %MON g__dynstat_g_sss_max         =   0.0000000000000E+00
(PID.TID 0000.0001) %MON g__dynstat_g_sss_min         =   0.0000000000000E+00
(PID.TID 0000.0001) %MON g__dynstat_g_sss_mean        =   0.0000000000000E+00
(PID.TID 0000.0001) %MON g__dynstat_g_sss_sd          =   0.0000000000000E+00
(PID.TID 0000.0001) %MON g__dynstat_g_sss_del2        =   0.0000000000000E+00
(PID.TID 0000.0001) %MON g__extforcing_g_qnet_max     =   0.0000000000000E+00
(PID.TID 0000.0001) %MON g__extforcing_g_qnet_min     =   0.0000000000000E+00
(PID.TID 0000.0001) %MON g__extforcing_g_qnet_mean    =   0.0000000000000E+00
(PID.TID 0000.0001) %MON g__extforcing_g_qnet_sd      =   0.0000000000000E+00
(PID.TID 0000.0001) %MON g__extforcing_g_qnet_del2    =   0.0000000000000E+00
(PID.TID 0000.0001) %MON g__extforcing_g_empmr_max    =   0.0000000000000E+00
(PID.TID 0000.0001) %MON g__extforcing_g_empmr_min    =   0.0000000000000E+00
(PID.TID 0000.0001) %MON g__extforcing_g_empmr_mean   =   0.0000000000000E+00
(PID.TID 0000.0001) %MON g__extforcing_g_empmr_sd     =   0.0000000000000E+00
(PID.TID 0000.0001) %MON g__extforcing_g_empmr_del2   =   0.0000000000000E+00
(PID.TID 0000.0001) %MON g__extforcing_g_fu_max       =   0.0000000000000E+00
(PID.TID 0000.0001) %MON g__extforcing_g_fu_min       =   0.0000000000000E+00
(PID.TID 0000.0001) %MON g__extforcing_g_fu_mean      =   0.0000000000000E+00
(PID.TID 0000.0001) %MON g__extforcing_g_fu_sd        =   0.0000000000000E+00
(PID.TID 0000.0001) %MON g__extforcing_g_fu_del2      =   0.0000000000000E+00
(PID.TID 0000.0001) %MON g__extforcing_g_fv_max       =   0.0000000000000E+00
(PID.TID 0000.0001) %MON g__extforcing_g_fv_min       =   0.0000000000000E+00
(PID.TID 0000.0001) %MON g__extforcing_g_fv_mean      =   0.0000000000000E+00
(PID.TID 0000.0001) %MON g__extforcing_g_fv_sd        =   0.0000000000000E+00
(PID.TID 0000.0001) %MON g__extforcing_g_fv_del2      =   0.0000000000000E+00
(PID.TID 0000.0001) %MON g__g_vcfl_g_uvel_max         =   0.0000000000000E+00
(PID.TID 0000.0001) %MON g__g_vcfl_g_vvel_max         =   0.0000000000000E+00
(PID.TID 0000.0001) %MON g__g_vcfl_g_wvel_max         =   0.0000000000000E+00
(PID.TID 0000.0001) %MON g__g_vcfl_g_W_hf_max         =   0.0000000000000E+00
(PID.TID 0000.0001) // =======================================================
(PID.TID 0000.0001) // End MONITOR dynamic field statistics
(PID.TID 0000.0001) // =======================================================
 cg2d: Sum(rhs),rhsMax =   0.00000000000000E+00  0.00000000000000E+00
 cg2d: Sum(rhs),rhsMax =   2.95950763895547E-13  8.05674108674482E+00
(PID.TID 0000.0001) // =======================================================
(PID.TID 0000.0001) // Begin MONITOR dynamic field statistics
(PID.TID 0000.0001) // =======================================================
(PID.TID 0000.0001) %MON g__time_tsnumber             =                    52
(PID.TID 0000.0001) %MON g__time_secondsf             =   2.2464000000000E+06
(PID.TID 0000.0001) %MON g__dynstat_g_eta_max         =   0.0000000000000E+00
(PID.TID 0000.0001) %MON g__dynstat_g_eta_min         =   0.0000000000000E+00
(PID.TID 0000.0001) %MON g__dynstat_g_eta_mean        =   0.0000000000000E+00
(PID.TID 0000.0001) %MON g__dynstat_g_eta_sd          =   0.0000000000000E+00
(PID.TID 0000.0001) %MON g__dynstat_g_eta_del2        =   0.0000000000000E+00
(PID.TID 0000.0001) %MON g__dynstat_g_uvel_max        =   0.0000000000000E+00
(PID.TID 0000.0001) %MON g__dynstat_g_uvel_min        =   0.0000000000000E+00
(PID.TID 0000.0001) %MON g__dynstat_g_uvel_mean       =   0.0000000000000E+00
(PID.TID 0000.0001) %MON g__dynstat_g_uvel_sd         =   0.0000000000000E+00
(PID.TID 0000.0001) %MON g__dynstat_g_uvel_del2       =   0.0000000000000E+00
(PID.TID 0000.0001) %MON g__dynstat_g_vvel_max        =   0.0000000000000E+00
(PID.TID 0000.0001) %MON g__dynstat_g_vvel_min        =   0.0000000000000E+00
(PID.TID 0000.0001) %MON g__dynstat_g_vvel_mean       =   0.0000000000000E+00
(PID.TID 0000.0001) %MON g__dynstat_g_vvel_sd         =   0.0000000000000E+00
(PID.TID 0000.0001) %MON g__dynstat_g_vvel_del2       =   0.0000000000000E+00
(PID.TID 0000.0001) %MON g__dynstat_g_wvel_max        =   0.0000000000000E+00
(PID.TID 0000.0001) %MON g__dynstat_g_wvel_min        =   0.0000000000000E+00
(PID.TID 0000.0001) %MON g__dynstat_g_wvel_mean       =   0.0000000000000E+00
(PID.TID 0000.0001) %MON g__dynstat_g_wvel_sd         =   0.0000000000000E+00
(PID.TID 0000.0001) %MON g__dynstat_g_wvel_del2       =   0.0000000000000E+00
(PID.TID 0000.0001) %MON g__dynstat_g_theta_max       =   0.0000000000000E+00
(PID.TID 0000.0001) %MON g__dynstat_g_theta_min       =   0.0000000000000E+00
(PID.TID 0000.0001) %MON g__dynstat_g_theta_mean      =   0.0000000000000E+00
(PID.TID 0000.0001) %MON g__dynstat_g_theta_sd        =   0.0000000000000E+00
(PID.TID 0000.0001) %MON g__dynstat_g_theta_del2      =   0.0000000000000E+00
(PID.TID 0000.0001) %MON g__dynstat_g_salt_max        =   0.0000000000000E+00
(PID.TID 0000.0001) %MON g__dynstat_g_salt_min        =   0.0000000000000E+00
(PID.TID 0000.0001) %MON g__dynstat_g_salt_mean       =   0.0000000000000E+00
(PID.TID 0000.0001) %MON g__dynstat_g_salt_sd         =   0.0000000000000E+00
(PID.TID 0000.0001) %MON g__dynstat_g_salt_del2       =   0.0000000000000E+00
(PID.TID 0000.0001) %MON g__dynstat_g_sst_max         =   0.0000000000000E+00
(PID.TID 0000.0001) %MON g__dynstat_g_sst_min         =   0.0000000000000E+00
(PID.TID 0000.0001) %MON g__dynstat_g_sst_mean        =   0.0000000000000E+00
(PID.TID 0000.0001) %MON g__dynstat_g_sst_sd          =   0.0000000000000E+00
(PID.TID 0000.0001) %MON g__dynstat_g_sst_del2        =   0.0000000000000E+00
(PID.TID 0000.0001) %MON g__dynstat_g_sss_max         =   0.0000000000000E+00
(PID.TID 0000.0001) %MON g__dynstat_g_sss_min         =   0.0000000000000E+00
(PID.TID 0000.0001) %MON g__dynstat_g_sss_mean        =   0.0000000000000E+00
(PID.TID 0000.0001) %MON g__dynstat_g_sss_sd          =   0.0000000000000E+00
(PID.TID 0000.0001) %MON g__dynstat_g_sss_del2        =   0.0000000000000E+00
(PID.TID 0000.0001) %MON g__extforcing_g_qnet_max     =   0.0000000000000E+00
(PID.TID 0000.0001) %MON g__extforcing_g_qnet_min     =   0.0000000000000E+00
(PID.TID 0000.0001) %MON g__extforcing_g_qnet_mean    =   0.0000000000000E+00
(PID.TID 0000.0001) %MON g__extforcing_g_qnet_sd      =   0.0000000000000E+00
(PID.TID 0000.0001) %MON g__extforcing_g_qnet_del2    =   0.0000000000000E+00
(PID.TID 0000.0001) %MON g__extforcing_g_empmr_max    =   0.0000000000000E+00
(PID.TID 0000.0001) %MON g__extforcing_g_empmr_min    =   0.0000000000000E+00
(PID.TID 0000.0001) %MON g__extforcing_g_empmr_mean   =   0.0000000000000E+00
(PID.TID 0000.0001) %MON g__extforcing_g_empmr_sd     =   0.0000000000000E+00
(PID.TID 0000.0001) %MON g__extforcing_g_empmr_del2   =   0.0000000000000E+00
(PID.TID 0000.0001) %MON g__extforcing_g_fu_max       =   0.0000000000000E+00
(PID.TID 0000.0001) %MON g__extforcing_g_fu_min       =   0.0000000000000E+00
(PID.TID 0000.0001) %MON g__extforcing_g_fu_mean      =   0.0000000000000E+00
(PID.TID 0000.0001) %MON g__extforcing_g_fu_sd        =   0.0000000000000E+00
(PID.TID 0000.0001) %MON g__extforcing_g_fu_del2      =   0.0000000000000E+00
(PID.TID 0000.0001) %MON g__extforcing_g_fv_max       =   0.0000000000000E+00
(PID.TID 0000.0001) %MON g__extforcing_g_fv_min       =   0.0000000000000E+00
(PID.TID 0000.0001) %MON g__extforcing_g_fv_mean      =   0.0000000000000E+00
(PID.TID 0000.0001) %MON g__extforcing_g_fv_sd        =   0.0000000000000E+00
(PID.TID 0000.0001) %MON g__extforcing_g_fv_del2      =   0.0000000000000E+00
(PID.TID 0000.0001) %MON g__g_vcfl_g_uvel_max         =   0.0000000000000E+00
(PID.TID 0000.0001) %MON g__g_vcfl_g_vvel_max         =   0.0000000000000E+00
(PID.TID 0000.0001) %MON g__g_vcfl_g_wvel_max         =   0.0000000000000E+00
(PID.TID 0000.0001) %MON g__g_vcfl_g_W_hf_max         =   0.0000000000000E+00
(PID.TID 0000.0001) // =======================================================
(PID.TID 0000.0001) // End MONITOR dynamic field statistics
(PID.TID 0000.0001) // =======================================================
 cg2d: Sum(rhs),rhsMax =   0.00000000000000E+00  0.00000000000000E+00
 cg2d: Sum(rhs),rhsMax =   1.47978851394726E-13  8.18299903790893E+00
(PID.TID 0000.0001) // =======================================================
(PID.TID 0000.0001) // Begin MONITOR dynamic field statistics
(PID.TID 0000.0001) // =======================================================
(PID.TID 0000.0001) %MON g__time_tsnumber             =                    53
(PID.TID 0000.0001) %MON g__time_secondsf             =   2.2896000000000E+06
(PID.TID 0000.0001) %MON g__dynstat_g_eta_max         =   0.0000000000000E+00
(PID.TID 0000.0001) %MON g__dynstat_g_eta_min         =   0.0000000000000E+00
(PID.TID 0000.0001) %MON g__dynstat_g_eta_mean        =   0.0000000000000E+00
(PID.TID 0000.0001) %MON g__dynstat_g_eta_sd          =   0.0000000000000E+00
(PID.TID 0000.0001) %MON g__dynstat_g_eta_del2        =   0.0000000000000E+00
(PID.TID 0000.0001) %MON g__dynstat_g_uvel_max        =   0.0000000000000E+00
(PID.TID 0000.0001) %MON g__dynstat_g_uvel_min        =   0.0000000000000E+00
(PID.TID 0000.0001) %MON g__dynstat_g_uvel_mean       =   0.0000000000000E+00
(PID.TID 0000.0001) %MON g__dynstat_g_uvel_sd         =   0.0000000000000E+00
(PID.TID 0000.0001) %MON g__dynstat_g_uvel_del2       =   0.0000000000000E+00
(PID.TID 0000.0001) %MON g__dynstat_g_vvel_max        =   0.0000000000000E+00
(PID.TID 0000.0001) %MON g__dynstat_g_vvel_min        =   0.0000000000000E+00
(PID.TID 0000.0001) %MON g__dynstat_g_vvel_mean       =   0.0000000000000E+00
(PID.TID 0000.0001) %MON g__dynstat_g_vvel_sd         =   0.0000000000000E+00
(PID.TID 0000.0001) %MON g__dynstat_g_vvel_del2       =   0.0000000000000E+00
(PID.TID 0000.0001) %MON g__dynstat_g_wvel_max        =   0.0000000000000E+00
(PID.TID 0000.0001) %MON g__dynstat_g_wvel_min        =   0.0000000000000E+00
(PID.TID 0000.0001) %MON g__dynstat_g_wvel_mean       =   0.0000000000000E+00
(PID.TID 0000.0001) %MON g__dynstat_g_wvel_sd         =   0.0000000000000E+00
(PID.TID 0000.0001) %MON g__dynstat_g_wvel_del2       =   0.0000000000000E+00
(PID.TID 0000.0001) %MON g__dynstat_g_theta_max       =   0.0000000000000E+00
(PID.TID 0000.0001) %MON g__dynstat_g_theta_min       =   0.0000000000000E+00
(PID.TID 0000.0001) %MON g__dynstat_g_theta_mean      =   0.0000000000000E+00
(PID.TID 0000.0001) %MON g__dynstat_g_theta_sd        =   0.0000000000000E+00
(PID.TID 0000.0001) %MON g__dynstat_g_theta_del2      =   0.0000000000000E+00
(PID.TID 0000.0001) %MON g__dynstat_g_salt_max        =   0.0000000000000E+00
(PID.TID 0000.0001) %MON g__dynstat_g_salt_min        =   0.0000000000000E+00
(PID.TID 0000.0001) %MON g__dynstat_g_salt_mean       =   0.0000000000000E+00
(PID.TID 0000.0001) %MON g__dynstat_g_salt_sd         =   0.0000000000000E+00
(PID.TID 0000.0001) %MON g__dynstat_g_salt_del2       =   0.0000000000000E+00
(PID.TID 0000.0001) %MON g__dynstat_g_sst_max         =   0.0000000000000E+00
(PID.TID 0000.0001) %MON g__dynstat_g_sst_min         =   0.0000000000000E+00
(PID.TID 0000.0001) %MON g__dynstat_g_sst_mean        =   0.0000000000000E+00
(PID.TID 0000.0001) %MON g__dynstat_g_sst_sd          =   0.0000000000000E+00
(PID.TID 0000.0001) %MON g__dynstat_g_sst_del2        =   0.0000000000000E+00
(PID.TID 0000.0001) %MON g__dynstat_g_sss_max         =   0.0000000000000E+00
(PID.TID 0000.0001) %MON g__dynstat_g_sss_min         =   0.0000000000000E+00
(PID.TID 0000.0001) %MON g__dynstat_g_sss_mean        =   0.0000000000000E+00
(PID.TID 0000.0001) %MON g__dynstat_g_sss_sd          =   0.0000000000000E+00
(PID.TID 0000.0001) %MON g__dynstat_g_sss_del2        =   0.0000000000000E+00
(PID.TID 0000.0001) %MON g__extforcing_g_qnet_max     =   0.0000000000000E+00
(PID.TID 0000.0001) %MON g__extforcing_g_qnet_min     =   0.0000000000000E+00
(PID.TID 0000.0001) %MON g__extforcing_g_qnet_mean    =   0.0000000000000E+00
(PID.TID 0000.0001) %MON g__extforcing_g_qnet_sd      =   0.0000000000000E+00
(PID.TID 0000.0001) %MON g__extforcing_g_qnet_del2    =   0.0000000000000E+00
(PID.TID 0000.0001) %MON g__extforcing_g_empmr_max    =   0.0000000000000E+00
(PID.TID 0000.0001) %MON g__extforcing_g_empmr_min    =   0.0000000000000E+00
(PID.TID 0000.0001) %MON g__extforcing_g_empmr_mean   =   0.0000000000000E+00
(PID.TID 0000.0001) %MON g__extforcing_g_empmr_sd     =   0.0000000000000E+00
(PID.TID 0000.0001) %MON g__extforcing_g_empmr_del2   =   0.0000000000000E+00
(PID.TID 0000.0001) %MON g__extforcing_g_fu_max       =   0.0000000000000E+00
(PID.TID 0000.0001) %MON g__extforcing_g_fu_min       =   0.0000000000000E+00
(PID.TID 0000.0001) %MON g__extforcing_g_fu_mean      =   0.0000000000000E+00
(PID.TID 0000.0001) %MON g__extforcing_g_fu_sd        =   0.0000000000000E+00
(PID.TID 0000.0001) %MON g__extforcing_g_fu_del2      =   0.0000000000000E+00
(PID.TID 0000.0001) %MON g__extforcing_g_fv_max       =   0.0000000000000E+00
(PID.TID 0000.0001) %MON g__extforcing_g_fv_min       =   0.0000000000000E+00
(PID.TID 0000.0001) %MON g__extforcing_g_fv_mean      =   0.0000000000000E+00
(PID.TID 0000.0001) %MON g__extforcing_g_fv_sd        =   0.0000000000000E+00
(PID.TID 0000.0001) %MON g__extforcing_g_fv_del2      =   0.0000000000000E+00
(PID.TID 0000.0001) %MON g__g_vcfl_g_uvel_max         =   0.0000000000000E+00
(PID.TID 0000.0001) %MON g__g_vcfl_g_vvel_max         =   0.0000000000000E+00
(PID.TID 0000.0001) %MON g__g_vcfl_g_wvel_max         =   0.0000000000000E+00
(PID.TID 0000.0001) %MON g__g_vcfl_g_W_hf_max         =   0.0000000000000E+00
(PID.TID 0000.0001) // =======================================================
(PID.TID 0000.0001) // End MONITOR dynamic field statistics
(PID.TID 0000.0001) // =======================================================
 cg2d: Sum(rhs),rhsMax =   0.00000000000000E+00  0.00000000000000E+00
 cg2d: Sum(rhs),rhsMax =   5.77475567364871E-13  9.40876964847958E+00
(PID.TID 0000.0001) // =======================================================
(PID.TID 0000.0001) // Begin MONITOR dynamic field statistics
(PID.TID 0000.0001) // =======================================================
(PID.TID 0000.0001) %MON g__time_tsnumber             =                    54
(PID.TID 0000.0001) %MON g__time_secondsf             =   2.3328000000000E+06
(PID.TID 0000.0001) %MON g__dynstat_g_eta_max         =   0.0000000000000E+00
(PID.TID 0000.0001) %MON g__dynstat_g_eta_min         =   0.0000000000000E+00
(PID.TID 0000.0001) %MON g__dynstat_g_eta_mean        =   0.0000000000000E+00
(PID.TID 0000.0001) %MON g__dynstat_g_eta_sd          =   0.0000000000000E+00
(PID.TID 0000.0001) %MON g__dynstat_g_eta_del2        =   0.0000000000000E+00
(PID.TID 0000.0001) %MON g__dynstat_g_uvel_max        =   0.0000000000000E+00
(PID.TID 0000.0001) %MON g__dynstat_g_uvel_min        =   0.0000000000000E+00
(PID.TID 0000.0001) %MON g__dynstat_g_uvel_mean       =   0.0000000000000E+00
(PID.TID 0000.0001) %MON g__dynstat_g_uvel_sd         =   0.0000000000000E+00
(PID.TID 0000.0001) %MON g__dynstat_g_uvel_del2       =   0.0000000000000E+00
(PID.TID 0000.0001) %MON g__dynstat_g_vvel_max        =   0.0000000000000E+00
(PID.TID 0000.0001) %MON g__dynstat_g_vvel_min        =   0.0000000000000E+00
(PID.TID 0000.0001) %MON g__dynstat_g_vvel_mean       =   0.0000000000000E+00
(PID.TID 0000.0001) %MON g__dynstat_g_vvel_sd         =   0.0000000000000E+00
(PID.TID 0000.0001) %MON g__dynstat_g_vvel_del2       =   0.0000000000000E+00
(PID.TID 0000.0001) %MON g__dynstat_g_wvel_max        =   0.0000000000000E+00
(PID.TID 0000.0001) %MON g__dynstat_g_wvel_min        =   0.0000000000000E+00
(PID.TID 0000.0001) %MON g__dynstat_g_wvel_mean       =   0.0000000000000E+00
(PID.TID 0000.0001) %MON g__dynstat_g_wvel_sd         =   0.0000000000000E+00
(PID.TID 0000.0001) %MON g__dynstat_g_wvel_del2       =   0.0000000000000E+00
(PID.TID 0000.0001) %MON g__dynstat_g_theta_max       =   0.0000000000000E+00
(PID.TID 0000.0001) %MON g__dynstat_g_theta_min       =   0.0000000000000E+00
(PID.TID 0000.0001) %MON g__dynstat_g_theta_mean      =   0.0000000000000E+00
(PID.TID 0000.0001) %MON g__dynstat_g_theta_sd        =   0.0000000000000E+00
(PID.TID 0000.0001) %MON g__dynstat_g_theta_del2      =   0.0000000000000E+00
(PID.TID 0000.0001) %MON g__dynstat_g_salt_max        =   0.0000000000000E+00
(PID.TID 0000.0001) %MON g__dynstat_g_salt_min        =   0.0000000000000E+00
(PID.TID 0000.0001) %MON g__dynstat_g_salt_mean       =   0.0000000000000E+00
(PID.TID 0000.0001) %MON g__dynstat_g_salt_sd         =   0.0000000000000E+00
(PID.TID 0000.0001) %MON g__dynstat_g_salt_del2       =   0.0000000000000E+00
(PID.TID 0000.0001) %MON g__dynstat_g_sst_max         =   0.0000000000000E+00
(PID.TID 0000.0001) %MON g__dynstat_g_sst_min         =   0.0000000000000E+00
(PID.TID 0000.0001) %MON g__dynstat_g_sst_mean        =   0.0000000000000E+00
(PID.TID 0000.0001) %MON g__dynstat_g_sst_sd          =   0.0000000000000E+00
(PID.TID 0000.0001) %MON g__dynstat_g_sst_del2        =   0.0000000000000E+00
(PID.TID 0000.0001) %MON g__dynstat_g_sss_max         =   0.0000000000000E+00
(PID.TID 0000.0001) %MON g__dynstat_g_sss_min         =   0.0000000000000E+00
(PID.TID 0000.0001) %MON g__dynstat_g_sss_mean        =   0.0000000000000E+00
(PID.TID 0000.0001) %MON g__dynstat_g_sss_sd          =   0.0000000000000E+00
(PID.TID 0000.0001) %MON g__dynstat_g_sss_del2        =   0.0000000000000E+00
(PID.TID 0000.0001) %MON g__extforcing_g_qnet_max     =   0.0000000000000E+00
(PID.TID 0000.0001) %MON g__extforcing_g_qnet_min     =   0.0000000000000E+00
(PID.TID 0000.0001) %MON g__extforcing_g_qnet_mean    =   0.0000000000000E+00
(PID.TID 0000.0001) %MON g__extforcing_g_qnet_sd      =   0.0000000000000E+00
(PID.TID 0000.0001) %MON g__extforcing_g_qnet_del2    =   0.0000000000000E+00
(PID.TID 0000.0001) %MON g__extforcing_g_empmr_max    =   0.0000000000000E+00
(PID.TID 0000.0001) %MON g__extforcing_g_empmr_min    =   0.0000000000000E+00
(PID.TID 0000.0001) %MON g__extforcing_g_empmr_mean   =   0.0000000000000E+00
(PID.TID 0000.0001) %MON g__extforcing_g_empmr_sd     =   0.0000000000000E+00
(PID.TID 0000.0001) %MON g__extforcing_g_empmr_del2   =   0.0000000000000E+00
(PID.TID 0000.0001) %MON g__extforcing_g_fu_max       =   0.0000000000000E+00
(PID.TID 0000.0001) %MON g__extforcing_g_fu_min       =   0.0000000000000E+00
(PID.TID 0000.0001) %MON g__extforcing_g_fu_mean      =   0.0000000000000E+00
(PID.TID 0000.0001) %MON g__extforcing_g_fu_sd        =   0.0000000000000E+00
(PID.TID 0000.0001) %MON g__extforcing_g_fu_del2      =   0.0000000000000E+00
(PID.TID 0000.0001) %MON g__extforcing_g_fv_max       =   0.0000000000000E+00
(PID.TID 0000.0001) %MON g__extforcing_g_fv_min       =   0.0000000000000E+00
(PID.TID 0000.0001) %MON g__extforcing_g_fv_mean      =   0.0000000000000E+00
(PID.TID 0000.0001) %MON g__extforcing_g_fv_sd        =   0.0000000000000E+00
(PID.TID 0000.0001) %MON g__extforcing_g_fv_del2      =   0.0000000000000E+00
(PID.TID 0000.0001) %MON g__g_vcfl_g_uvel_max         =   0.0000000000000E+00
(PID.TID 0000.0001) %MON g__g_vcfl_g_vvel_max         =   0.0000000000000E+00
(PID.TID 0000.0001) %MON g__g_vcfl_g_wvel_max         =   0.0000000000000E+00
(PID.TID 0000.0001) %MON g__g_vcfl_g_W_hf_max         =   0.0000000000000E+00
(PID.TID 0000.0001) // =======================================================
(PID.TID 0000.0001) // End MONITOR dynamic field statistics
(PID.TID 0000.0001) // =======================================================
 cg2d: Sum(rhs),rhsMax =   0.00000000000000E+00  0.00000000000000E+00
 cg2d: Sum(rhs),rhsMax =   1.07269748639283E-12  1.05293280195721E+01
(PID.TID 0000.0001) // =======================================================
(PID.TID 0000.0001) // Begin MONITOR dynamic field statistics
(PID.TID 0000.0001) // =======================================================
(PID.TID 0000.0001) %MON g__time_tsnumber             =                    55
(PID.TID 0000.0001) %MON g__time_secondsf             =   2.3760000000000E+06
(PID.TID 0000.0001) %MON g__dynstat_g_eta_max         =   0.0000000000000E+00
(PID.TID 0000.0001) %MON g__dynstat_g_eta_min         =   0.0000000000000E+00
(PID.TID 0000.0001) %MON g__dynstat_g_eta_mean        =   0.0000000000000E+00
(PID.TID 0000.0001) %MON g__dynstat_g_eta_sd          =   0.0000000000000E+00
(PID.TID 0000.0001) %MON g__dynstat_g_eta_del2        =   0.0000000000000E+00
(PID.TID 0000.0001) %MON g__dynstat_g_uvel_max        =   0.0000000000000E+00
(PID.TID 0000.0001) %MON g__dynstat_g_uvel_min        =   0.0000000000000E+00
(PID.TID 0000.0001) %MON g__dynstat_g_uvel_mean       =   0.0000000000000E+00
(PID.TID 0000.0001) %MON g__dynstat_g_uvel_sd         =   0.0000000000000E+00
(PID.TID 0000.0001) %MON g__dynstat_g_uvel_del2       =   0.0000000000000E+00
(PID.TID 0000.0001) %MON g__dynstat_g_vvel_max        =   0.0000000000000E+00
(PID.TID 0000.0001) %MON g__dynstat_g_vvel_min        =   0.0000000000000E+00
(PID.TID 0000.0001) %MON g__dynstat_g_vvel_mean       =   0.0000000000000E+00
(PID.TID 0000.0001) %MON g__dynstat_g_vvel_sd         =   0.0000000000000E+00
(PID.TID 0000.0001) %MON g__dynstat_g_vvel_del2       =   0.0000000000000E+00
(PID.TID 0000.0001) %MON g__dynstat_g_wvel_max        =   0.0000000000000E+00
(PID.TID 0000.0001) %MON g__dynstat_g_wvel_min        =   0.0000000000000E+00
(PID.TID 0000.0001) %MON g__dynstat_g_wvel_mean       =   0.0000000000000E+00
(PID.TID 0000.0001) %MON g__dynstat_g_wvel_sd         =   0.0000000000000E+00
(PID.TID 0000.0001) %MON g__dynstat_g_wvel_del2       =   0.0000000000000E+00
(PID.TID 0000.0001) %MON g__dynstat_g_theta_max       =   0.0000000000000E+00
(PID.TID 0000.0001) %MON g__dynstat_g_theta_min       =   0.0000000000000E+00
(PID.TID 0000.0001) %MON g__dynstat_g_theta_mean      =   0.0000000000000E+00
(PID.TID 0000.0001) %MON g__dynstat_g_theta_sd        =   0.0000000000000E+00
(PID.TID 0000.0001) %MON g__dynstat_g_theta_del2      =   0.0000000000000E+00
(PID.TID 0000.0001) %MON g__dynstat_g_salt_max        =   0.0000000000000E+00
(PID.TID 0000.0001) %MON g__dynstat_g_salt_min        =   0.0000000000000E+00
(PID.TID 0000.0001) %MON g__dynstat_g_salt_mean       =   0.0000000000000E+00
(PID.TID 0000.0001) %MON g__dynstat_g_salt_sd         =   0.0000000000000E+00
(PID.TID 0000.0001) %MON g__dynstat_g_salt_del2       =   0.0000000000000E+00
(PID.TID 0000.0001) %MON g__dynstat_g_sst_max         =   0.0000000000000E+00
(PID.TID 0000.0001) %MON g__dynstat_g_sst_min         =   0.0000000000000E+00
(PID.TID 0000.0001) %MON g__dynstat_g_sst_mean        =   0.0000000000000E+00
(PID.TID 0000.0001) %MON g__dynstat_g_sst_sd          =   0.0000000000000E+00
(PID.TID 0000.0001) %MON g__dynstat_g_sst_del2        =   0.0000000000000E+00
(PID.TID 0000.0001) %MON g__dynstat_g_sss_max         =   0.0000000000000E+00
(PID.TID 0000.0001) %MON g__dynstat_g_sss_min         =   0.0000000000000E+00
(PID.TID 0000.0001) %MON g__dynstat_g_sss_mean        =   0.0000000000000E+00
(PID.TID 0000.0001) %MON g__dynstat_g_sss_sd          =   0.0000000000000E+00
(PID.TID 0000.0001) %MON g__dynstat_g_sss_del2        =   0.0000000000000E+00
(PID.TID 0000.0001) %MON g__extforcing_g_qnet_max     =   0.0000000000000E+00
(PID.TID 0000.0001) %MON g__extforcing_g_qnet_min     =   0.0000000000000E+00
(PID.TID 0000.0001) %MON g__extforcing_g_qnet_mean    =   0.0000000000000E+00
(PID.TID 0000.0001) %MON g__extforcing_g_qnet_sd      =   0.0000000000000E+00
(PID.TID 0000.0001) %MON g__extforcing_g_qnet_del2    =   0.0000000000000E+00
(PID.TID 0000.0001) %MON g__extforcing_g_empmr_max    =   0.0000000000000E+00
(PID.TID 0000.0001) %MON g__extforcing_g_empmr_min    =   0.0000000000000E+00
(PID.TID 0000.0001) %MON g__extforcing_g_empmr_mean   =   0.0000000000000E+00
(PID.TID 0000.0001) %MON g__extforcing_g_empmr_sd     =   0.0000000000000E+00
(PID.TID 0000.0001) %MON g__extforcing_g_empmr_del2   =   0.0000000000000E+00
(PID.TID 0000.0001) %MON g__extforcing_g_fu_max       =   0.0000000000000E+00
(PID.TID 0000.0001) %MON g__extforcing_g_fu_min       =   0.0000000000000E+00
(PID.TID 0000.0001) %MON g__extforcing_g_fu_mean      =   0.0000000000000E+00
(PID.TID 0000.0001) %MON g__extforcing_g_fu_sd        =   0.0000000000000E+00
(PID.TID 0000.0001) %MON g__extforcing_g_fu_del2      =   0.0000000000000E+00
(PID.TID 0000.0001) %MON g__extforcing_g_fv_max       =   0.0000000000000E+00
(PID.TID 0000.0001) %MON g__extforcing_g_fv_min       =   0.0000000000000E+00
(PID.TID 0000.0001) %MON g__extforcing_g_fv_mean      =   0.0000000000000E+00
(PID.TID 0000.0001) %MON g__extforcing_g_fv_sd        =   0.0000000000000E+00
(PID.TID 0000.0001) %MON g__extforcing_g_fv_del2      =   0.0000000000000E+00
(PID.TID 0000.0001) %MON g__g_vcfl_g_uvel_max         =   0.0000000000000E+00
(PID.TID 0000.0001) %MON g__g_vcfl_g_vvel_max         =   0.0000000000000E+00
(PID.TID 0000.0001) %MON g__g_vcfl_g_wvel_max         =   0.0000000000000E+00
(PID.TID 0000.0001) %MON g__g_vcfl_g_W_hf_max         =   0.0000000000000E+00
(PID.TID 0000.0001) // =======================================================
(PID.TID 0000.0001) // End MONITOR dynamic field statistics
(PID.TID 0000.0001) // =======================================================
 cg2d: Sum(rhs),rhsMax =   0.00000000000000E+00  0.00000000000000E+00
 cg2d: Sum(rhs),rhsMax =   1.29979360607990E-12  1.15144713398792E+01
(PID.TID 0000.0001) // =======================================================
(PID.TID 0000.0001) // Begin MONITOR dynamic field statistics
(PID.TID 0000.0001) // =======================================================
(PID.TID 0000.0001) %MON g__time_tsnumber             =                    56
(PID.TID 0000.0001) %MON g__time_secondsf             =   2.4192000000000E+06
(PID.TID 0000.0001) %MON g__dynstat_g_eta_max         =   0.0000000000000E+00
(PID.TID 0000.0001) %MON g__dynstat_g_eta_min         =   0.0000000000000E+00
(PID.TID 0000.0001) %MON g__dynstat_g_eta_mean        =   0.0000000000000E+00
(PID.TID 0000.0001) %MON g__dynstat_g_eta_sd          =   0.0000000000000E+00
(PID.TID 0000.0001) %MON g__dynstat_g_eta_del2        =   0.0000000000000E+00
(PID.TID 0000.0001) %MON g__dynstat_g_uvel_max        =   0.0000000000000E+00
(PID.TID 0000.0001) %MON g__dynstat_g_uvel_min        =   0.0000000000000E+00
(PID.TID 0000.0001) %MON g__dynstat_g_uvel_mean       =   0.0000000000000E+00
(PID.TID 0000.0001) %MON g__dynstat_g_uvel_sd         =   0.0000000000000E+00
(PID.TID 0000.0001) %MON g__dynstat_g_uvel_del2       =   0.0000000000000E+00
(PID.TID 0000.0001) %MON g__dynstat_g_vvel_max        =   0.0000000000000E+00
(PID.TID 0000.0001) %MON g__dynstat_g_vvel_min        =   0.0000000000000E+00
(PID.TID 0000.0001) %MON g__dynstat_g_vvel_mean       =   0.0000000000000E+00
(PID.TID 0000.0001) %MON g__dynstat_g_vvel_sd         =   0.0000000000000E+00
(PID.TID 0000.0001) %MON g__dynstat_g_vvel_del2       =   0.0000000000000E+00
(PID.TID 0000.0001) %MON g__dynstat_g_wvel_max        =   0.0000000000000E+00
(PID.TID 0000.0001) %MON g__dynstat_g_wvel_min        =   0.0000000000000E+00
(PID.TID 0000.0001) %MON g__dynstat_g_wvel_mean       =   0.0000000000000E+00
(PID.TID 0000.0001) %MON g__dynstat_g_wvel_sd         =   0.0000000000000E+00
(PID.TID 0000.0001) %MON g__dynstat_g_wvel_del2       =   0.0000000000000E+00
(PID.TID 0000.0001) %MON g__dynstat_g_theta_max       =   0.0000000000000E+00
(PID.TID 0000.0001) %MON g__dynstat_g_theta_min       =   0.0000000000000E+00
(PID.TID 0000.0001) %MON g__dynstat_g_theta_mean      =   0.0000000000000E+00
(PID.TID 0000.0001) %MON g__dynstat_g_theta_sd        =   0.0000000000000E+00
(PID.TID 0000.0001) %MON g__dynstat_g_theta_del2      =   0.0000000000000E+00
(PID.TID 0000.0001) %MON g__dynstat_g_salt_max        =   0.0000000000000E+00
(PID.TID 0000.0001) %MON g__dynstat_g_salt_min        =   0.0000000000000E+00
(PID.TID 0000.0001) %MON g__dynstat_g_salt_mean       =   0.0000000000000E+00
(PID.TID 0000.0001) %MON g__dynstat_g_salt_sd         =   0.0000000000000E+00
(PID.TID 0000.0001) %MON g__dynstat_g_salt_del2       =   0.0000000000000E+00
(PID.TID 0000.0001) %MON g__dynstat_g_sst_max         =   0.0000000000000E+00
(PID.TID 0000.0001) %MON g__dynstat_g_sst_min         =   0.0000000000000E+00
(PID.TID 0000.0001) %MON g__dynstat_g_sst_mean        =   0.0000000000000E+00
(PID.TID 0000.0001) %MON g__dynstat_g_sst_sd          =   0.0000000000000E+00
(PID.TID 0000.0001) %MON g__dynstat_g_sst_del2        =   0.0000000000000E+00
(PID.TID 0000.0001) %MON g__dynstat_g_sss_max         =   0.0000000000000E+00
(PID.TID 0000.0001) %MON g__dynstat_g_sss_min         =   0.0000000000000E+00
(PID.TID 0000.0001) %MON g__dynstat_g_sss_mean        =   0.0000000000000E+00
(PID.TID 0000.0001) %MON g__dynstat_g_sss_sd          =   0.0000000000000E+00
(PID.TID 0000.0001) %MON g__dynstat_g_sss_del2        =   0.0000000000000E+00
(PID.TID 0000.0001) %MON g__extforcing_g_qnet_max     =   0.0000000000000E+00
(PID.TID 0000.0001) %MON g__extforcing_g_qnet_min     =   0.0000000000000E+00
(PID.TID 0000.0001) %MON g__extforcing_g_qnet_mean    =   0.0000000000000E+00
(PID.TID 0000.0001) %MON g__extforcing_g_qnet_sd      =   0.0000000000000E+00
(PID.TID 0000.0001) %MON g__extforcing_g_qnet_del2    =   0.0000000000000E+00
(PID.TID 0000.0001) %MON g__extforcing_g_empmr_max    =   0.0000000000000E+00
(PID.TID 0000.0001) %MON g__extforcing_g_empmr_min    =   0.0000000000000E+00
(PID.TID 0000.0001) %MON g__extforcing_g_empmr_mean   =   0.0000000000000E+00
(PID.TID 0000.0001) %MON g__extforcing_g_empmr_sd     =   0.0000000000000E+00
(PID.TID 0000.0001) %MON g__extforcing_g_empmr_del2   =   0.0000000000000E+00
(PID.TID 0000.0001) %MON g__extforcing_g_fu_max       =   0.0000000000000E+00
(PID.TID 0000.0001) %MON g__extforcing_g_fu_min       =   0.0000000000000E+00
(PID.TID 0000.0001) %MON g__extforcing_g_fu_mean      =   0.0000000000000E+00
(PID.TID 0000.0001) %MON g__extforcing_g_fu_sd        =   0.0000000000000E+00
(PID.TID 0000.0001) %MON g__extforcing_g_fu_del2      =   0.0000000000000E+00
(PID.TID 0000.0001) %MON g__extforcing_g_fv_max       =   0.0000000000000E+00
(PID.TID 0000.0001) %MON g__extforcing_g_fv_min       =   0.0000000000000E+00
(PID.TID 0000.0001) %MON g__extforcing_g_fv_mean      =   0.0000000000000E+00
(PID.TID 0000.0001) %MON g__extforcing_g_fv_sd        =   0.0000000000000E+00
(PID.TID 0000.0001) %MON g__extforcing_g_fv_del2      =   0.0000000000000E+00
(PID.TID 0000.0001) %MON g__g_vcfl_g_uvel_max         =   0.0000000000000E+00
(PID.TID 0000.0001) %MON g__g_vcfl_g_vvel_max         =   0.0000000000000E+00
(PID.TID 0000.0001) %MON g__g_vcfl_g_wvel_max         =   0.0000000000000E+00
(PID.TID 0000.0001) %MON g__g_vcfl_g_W_hf_max         =   0.0000000000000E+00
(PID.TID 0000.0001) // =======================================================
(PID.TID 0000.0001) // End MONITOR dynamic field statistics
(PID.TID 0000.0001) // =======================================================
 cg2d: Sum(rhs),rhsMax =   0.00000000000000E+00  0.00000000000000E+00
 cg2d: Sum(rhs),rhsMax =   1.36504696435225E-12  1.23395344882039E+01
(PID.TID 0000.0001) // =======================================================
(PID.TID 0000.0001) // Begin MONITOR dynamic field statistics
(PID.TID 0000.0001) // =======================================================
(PID.TID 0000.0001) %MON g__time_tsnumber             =                    57
(PID.TID 0000.0001) %MON g__time_secondsf             =   2.4624000000000E+06
(PID.TID 0000.0001) %MON g__dynstat_g_eta_max         =   0.0000000000000E+00
(PID.TID 0000.0001) %MON g__dynstat_g_eta_min         =   0.0000000000000E+00
(PID.TID 0000.0001) %MON g__dynstat_g_eta_mean        =   0.0000000000000E+00
(PID.TID 0000.0001) %MON g__dynstat_g_eta_sd          =   0.0000000000000E+00
(PID.TID 0000.0001) %MON g__dynstat_g_eta_del2        =   0.0000000000000E+00
(PID.TID 0000.0001) %MON g__dynstat_g_uvel_max        =   0.0000000000000E+00
(PID.TID 0000.0001) %MON g__dynstat_g_uvel_min        =   0.0000000000000E+00
(PID.TID 0000.0001) %MON g__dynstat_g_uvel_mean       =   0.0000000000000E+00
(PID.TID 0000.0001) %MON g__dynstat_g_uvel_sd         =   0.0000000000000E+00
(PID.TID 0000.0001) %MON g__dynstat_g_uvel_del2       =   0.0000000000000E+00
(PID.TID 0000.0001) %MON g__dynstat_g_vvel_max        =   0.0000000000000E+00
(PID.TID 0000.0001) %MON g__dynstat_g_vvel_min        =   0.0000000000000E+00
(PID.TID 0000.0001) %MON g__dynstat_g_vvel_mean       =   0.0000000000000E+00
(PID.TID 0000.0001) %MON g__dynstat_g_vvel_sd         =   0.0000000000000E+00
(PID.TID 0000.0001) %MON g__dynstat_g_vvel_del2       =   0.0000000000000E+00
(PID.TID 0000.0001) %MON g__dynstat_g_wvel_max        =   0.0000000000000E+00
(PID.TID 0000.0001) %MON g__dynstat_g_wvel_min        =   0.0000000000000E+00
(PID.TID 0000.0001) %MON g__dynstat_g_wvel_mean       =   0.0000000000000E+00
(PID.TID 0000.0001) %MON g__dynstat_g_wvel_sd         =   0.0000000000000E+00
(PID.TID 0000.0001) %MON g__dynstat_g_wvel_del2       =   0.0000000000000E+00
(PID.TID 0000.0001) %MON g__dynstat_g_theta_max       =   0.0000000000000E+00
(PID.TID 0000.0001) %MON g__dynstat_g_theta_min       =   0.0000000000000E+00
(PID.TID 0000.0001) %MON g__dynstat_g_theta_mean      =   0.0000000000000E+00
(PID.TID 0000.0001) %MON g__dynstat_g_theta_sd        =   0.0000000000000E+00
(PID.TID 0000.0001) %MON g__dynstat_g_theta_del2      =   0.0000000000000E+00
(PID.TID 0000.0001) %MON g__dynstat_g_salt_max        =   0.0000000000000E+00
(PID.TID 0000.0001) %MON g__dynstat_g_salt_min        =   0.0000000000000E+00
(PID.TID 0000.0001) %MON g__dynstat_g_salt_mean       =   0.0000000000000E+00
(PID.TID 0000.0001) %MON g__dynstat_g_salt_sd         =   0.0000000000000E+00
(PID.TID 0000.0001) %MON g__dynstat_g_salt_del2       =   0.0000000000000E+00
(PID.TID 0000.0001) %MON g__dynstat_g_sst_max         =   0.0000000000000E+00
(PID.TID 0000.0001) %MON g__dynstat_g_sst_min         =   0.0000000000000E+00
(PID.TID 0000.0001) %MON g__dynstat_g_sst_mean        =   0.0000000000000E+00
(PID.TID 0000.0001) %MON g__dynstat_g_sst_sd          =   0.0000000000000E+00
(PID.TID 0000.0001) %MON g__dynstat_g_sst_del2        =   0.0000000000000E+00
(PID.TID 0000.0001) %MON g__dynstat_g_sss_max         =   0.0000000000000E+00
(PID.TID 0000.0001) %MON g__dynstat_g_sss_min         =   0.0000000000000E+00
(PID.TID 0000.0001) %MON g__dynstat_g_sss_mean        =   0.0000000000000E+00
(PID.TID 0000.0001) %MON g__dynstat_g_sss_sd          =   0.0000000000000E+00
(PID.TID 0000.0001) %MON g__dynstat_g_sss_del2        =   0.0000000000000E+00
(PID.TID 0000.0001) %MON g__extforcing_g_qnet_max     =   0.0000000000000E+00
(PID.TID 0000.0001) %MON g__extforcing_g_qnet_min     =   0.0000000000000E+00
(PID.TID 0000.0001) %MON g__extforcing_g_qnet_mean    =   0.0000000000000E+00
(PID.TID 0000.0001) %MON g__extforcing_g_qnet_sd      =   0.0000000000000E+00
(PID.TID 0000.0001) %MON g__extforcing_g_qnet_del2    =   0.0000000000000E+00
(PID.TID 0000.0001) %MON g__extforcing_g_empmr_max    =   0.0000000000000E+00
(PID.TID 0000.0001) %MON g__extforcing_g_empmr_min    =   0.0000000000000E+00
(PID.TID 0000.0001) %MON g__extforcing_g_empmr_mean   =   0.0000000000000E+00
(PID.TID 0000.0001) %MON g__extforcing_g_empmr_sd     =   0.0000000000000E+00
(PID.TID 0000.0001) %MON g__extforcing_g_empmr_del2   =   0.0000000000000E+00
(PID.TID 0000.0001) %MON g__extforcing_g_fu_max       =   0.0000000000000E+00
(PID.TID 0000.0001) %MON g__extforcing_g_fu_min       =   0.0000000000000E+00
(PID.TID 0000.0001) %MON g__extforcing_g_fu_mean      =   0.0000000000000E+00
(PID.TID 0000.0001) %MON g__extforcing_g_fu_sd        =   0.0000000000000E+00
(PID.TID 0000.0001) %MON g__extforcing_g_fu_del2      =   0.0000000000000E+00
(PID.TID 0000.0001) %MON g__extforcing_g_fv_max       =   0.0000000000000E+00
(PID.TID 0000.0001) %MON g__extforcing_g_fv_min       =   0.0000000000000E+00
(PID.TID 0000.0001) %MON g__extforcing_g_fv_mean      =   0.0000000000000E+00
(PID.TID 0000.0001) %MON g__extforcing_g_fv_sd        =   0.0000000000000E+00
(PID.TID 0000.0001) %MON g__extforcing_g_fv_del2      =   0.0000000000000E+00
(PID.TID 0000.0001) %MON g__g_vcfl_g_uvel_max         =   0.0000000000000E+00
(PID.TID 0000.0001) %MON g__g_vcfl_g_vvel_max         =   0.0000000000000E+00
(PID.TID 0000.0001) %MON g__g_vcfl_g_wvel_max         =   0.0000000000000E+00
(PID.TID 0000.0001) %MON g__g_vcfl_g_W_hf_max         =   0.0000000000000E+00
(PID.TID 0000.0001) // =======================================================
(PID.TID 0000.0001) // End MONITOR dynamic field statistics
(PID.TID 0000.0001) // =======================================================
 cg2d: Sum(rhs),rhsMax =   0.00000000000000E+00  0.00000000000000E+00
 cg2d: Sum(rhs),rhsMax =   1.98138727647290E-12  1.29859656251116E+01
(PID.TID 0000.0001) // =======================================================
(PID.TID 0000.0001) // Begin MONITOR dynamic field statistics
(PID.TID 0000.0001) // =======================================================
(PID.TID 0000.0001) %MON g__time_tsnumber             =                    58
(PID.TID 0000.0001) %MON g__time_secondsf             =   2.5056000000000E+06
(PID.TID 0000.0001) %MON g__dynstat_g_eta_max         =   0.0000000000000E+00
(PID.TID 0000.0001) %MON g__dynstat_g_eta_min         =   0.0000000000000E+00
(PID.TID 0000.0001) %MON g__dynstat_g_eta_mean        =   0.0000000000000E+00
(PID.TID 0000.0001) %MON g__dynstat_g_eta_sd          =   0.0000000000000E+00
(PID.TID 0000.0001) %MON g__dynstat_g_eta_del2        =   0.0000000000000E+00
(PID.TID 0000.0001) %MON g__dynstat_g_uvel_max        =   0.0000000000000E+00
(PID.TID 0000.0001) %MON g__dynstat_g_uvel_min        =   0.0000000000000E+00
(PID.TID 0000.0001) %MON g__dynstat_g_uvel_mean       =   0.0000000000000E+00
(PID.TID 0000.0001) %MON g__dynstat_g_uvel_sd         =   0.0000000000000E+00
(PID.TID 0000.0001) %MON g__dynstat_g_uvel_del2       =   0.0000000000000E+00
(PID.TID 0000.0001) %MON g__dynstat_g_vvel_max        =   0.0000000000000E+00
(PID.TID 0000.0001) %MON g__dynstat_g_vvel_min        =   0.0000000000000E+00
(PID.TID 0000.0001) %MON g__dynstat_g_vvel_mean       =   0.0000000000000E+00
(PID.TID 0000.0001) %MON g__dynstat_g_vvel_sd         =   0.0000000000000E+00
(PID.TID 0000.0001) %MON g__dynstat_g_vvel_del2       =   0.0000000000000E+00
(PID.TID 0000.0001) %MON g__dynstat_g_wvel_max        =   0.0000000000000E+00
(PID.TID 0000.0001) %MON g__dynstat_g_wvel_min        =   0.0000000000000E+00
(PID.TID 0000.0001) %MON g__dynstat_g_wvel_mean       =   0.0000000000000E+00
(PID.TID 0000.0001) %MON g__dynstat_g_wvel_sd         =   0.0000000000000E+00
(PID.TID 0000.0001) %MON g__dynstat_g_wvel_del2       =   0.0000000000000E+00
(PID.TID 0000.0001) %MON g__dynstat_g_theta_max       =   0.0000000000000E+00
(PID.TID 0000.0001) %MON g__dynstat_g_theta_min       =   0.0000000000000E+00
(PID.TID 0000.0001) %MON g__dynstat_g_theta_mean      =   0.0000000000000E+00
(PID.TID 0000.0001) %MON g__dynstat_g_theta_sd        =   0.0000000000000E+00
(PID.TID 0000.0001) %MON g__dynstat_g_theta_del2      =   0.0000000000000E+00
(PID.TID 0000.0001) %MON g__dynstat_g_salt_max        =   0.0000000000000E+00
(PID.TID 0000.0001) %MON g__dynstat_g_salt_min        =   0.0000000000000E+00
(PID.TID 0000.0001) %MON g__dynstat_g_salt_mean       =   0.0000000000000E+00
(PID.TID 0000.0001) %MON g__dynstat_g_salt_sd         =   0.0000000000000E+00
(PID.TID 0000.0001) %MON g__dynstat_g_salt_del2       =   0.0000000000000E+00
(PID.TID 0000.0001) %MON g__dynstat_g_sst_max         =   0.0000000000000E+00
(PID.TID 0000.0001) %MON g__dynstat_g_sst_min         =   0.0000000000000E+00
(PID.TID 0000.0001) %MON g__dynstat_g_sst_mean        =   0.0000000000000E+00
(PID.TID 0000.0001) %MON g__dynstat_g_sst_sd          =   0.0000000000000E+00
(PID.TID 0000.0001) %MON g__dynstat_g_sst_del2        =   0.0000000000000E+00
(PID.TID 0000.0001) %MON g__dynstat_g_sss_max         =   0.0000000000000E+00
(PID.TID 0000.0001) %MON g__dynstat_g_sss_min         =   0.0000000000000E+00
(PID.TID 0000.0001) %MON g__dynstat_g_sss_mean        =   0.0000000000000E+00
(PID.TID 0000.0001) %MON g__dynstat_g_sss_sd          =   0.0000000000000E+00
(PID.TID 0000.0001) %MON g__dynstat_g_sss_del2        =   0.0000000000000E+00
(PID.TID 0000.0001) %MON g__extforcing_g_qnet_max     =   0.0000000000000E+00
(PID.TID 0000.0001) %MON g__extforcing_g_qnet_min     =   0.0000000000000E+00
(PID.TID 0000.0001) %MON g__extforcing_g_qnet_mean    =   0.0000000000000E+00
(PID.TID 0000.0001) %MON g__extforcing_g_qnet_sd      =   0.0000000000000E+00
(PID.TID 0000.0001) %MON g__extforcing_g_qnet_del2    =   0.0000000000000E+00
(PID.TID 0000.0001) %MON g__extforcing_g_empmr_max    =   0.0000000000000E+00
(PID.TID 0000.0001) %MON g__extforcing_g_empmr_min    =   0.0000000000000E+00
(PID.TID 0000.0001) %MON g__extforcing_g_empmr_mean   =   0.0000000000000E+00
(PID.TID 0000.0001) %MON g__extforcing_g_empmr_sd     =   0.0000000000000E+00
(PID.TID 0000.0001) %MON g__extforcing_g_empmr_del2   =   0.0000000000000E+00
(PID.TID 0000.0001) %MON g__extforcing_g_fu_max       =   0.0000000000000E+00
(PID.TID 0000.0001) %MON g__extforcing_g_fu_min       =   0.0000000000000E+00
(PID.TID 0000.0001) %MON g__extforcing_g_fu_mean      =   0.0000000000000E+00
(PID.TID 0000.0001) %MON g__extforcing_g_fu_sd        =   0.0000000000000E+00
(PID.TID 0000.0001) %MON g__extforcing_g_fu_del2      =   0.0000000000000E+00
(PID.TID 0000.0001) %MON g__extforcing_g_fv_max       =   0.0000000000000E+00
(PID.TID 0000.0001) %MON g__extforcing_g_fv_min       =   0.0000000000000E+00
(PID.TID 0000.0001) %MON g__extforcing_g_fv_mean      =   0.0000000000000E+00
(PID.TID 0000.0001) %MON g__extforcing_g_fv_sd        =   0.0000000000000E+00
(PID.TID 0000.0001) %MON g__extforcing_g_fv_del2      =   0.0000000000000E+00
(PID.TID 0000.0001) %MON g__g_vcfl_g_uvel_max         =   0.0000000000000E+00
(PID.TID 0000.0001) %MON g__g_vcfl_g_vvel_max         =   0.0000000000000E+00
(PID.TID 0000.0001) %MON g__g_vcfl_g_wvel_max         =   0.0000000000000E+00
(PID.TID 0000.0001) %MON g__g_vcfl_g_W_hf_max         =   0.0000000000000E+00
(PID.TID 0000.0001) // =======================================================
(PID.TID 0000.0001) // End MONITOR dynamic field statistics
(PID.TID 0000.0001) // =======================================================
 cg2d: Sum(rhs),rhsMax =   0.00000000000000E+00  0.00000000000000E+00
 cg2d: Sum(rhs),rhsMax =   2.21875295913776E-12  1.34416463490861E+01
(PID.TID 0000.0001) // =======================================================
(PID.TID 0000.0001) // Begin MONITOR dynamic field statistics
(PID.TID 0000.0001) // =======================================================
(PID.TID 0000.0001) %MON g__time_tsnumber             =                    59
(PID.TID 0000.0001) %MON g__time_secondsf             =   2.5488000000000E+06
(PID.TID 0000.0001) %MON g__dynstat_g_eta_max         =   0.0000000000000E+00
(PID.TID 0000.0001) %MON g__dynstat_g_eta_min         =   0.0000000000000E+00
(PID.TID 0000.0001) %MON g__dynstat_g_eta_mean        =   0.0000000000000E+00
(PID.TID 0000.0001) %MON g__dynstat_g_eta_sd          =   0.0000000000000E+00
(PID.TID 0000.0001) %MON g__dynstat_g_eta_del2        =   0.0000000000000E+00
(PID.TID 0000.0001) %MON g__dynstat_g_uvel_max        =   0.0000000000000E+00
(PID.TID 0000.0001) %MON g__dynstat_g_uvel_min        =   0.0000000000000E+00
(PID.TID 0000.0001) %MON g__dynstat_g_uvel_mean       =   0.0000000000000E+00
(PID.TID 0000.0001) %MON g__dynstat_g_uvel_sd         =   0.0000000000000E+00
(PID.TID 0000.0001) %MON g__dynstat_g_uvel_del2       =   0.0000000000000E+00
(PID.TID 0000.0001) %MON g__dynstat_g_vvel_max        =   0.0000000000000E+00
(PID.TID 0000.0001) %MON g__dynstat_g_vvel_min        =   0.0000000000000E+00
(PID.TID 0000.0001) %MON g__dynstat_g_vvel_mean       =   0.0000000000000E+00
(PID.TID 0000.0001) %MON g__dynstat_g_vvel_sd         =   0.0000000000000E+00
(PID.TID 0000.0001) %MON g__dynstat_g_vvel_del2       =   0.0000000000000E+00
(PID.TID 0000.0001) %MON g__dynstat_g_wvel_max        =   0.0000000000000E+00
(PID.TID 0000.0001) %MON g__dynstat_g_wvel_min        =   0.0000000000000E+00
(PID.TID 0000.0001) %MON g__dynstat_g_wvel_mean       =   0.0000000000000E+00
(PID.TID 0000.0001) %MON g__dynstat_g_wvel_sd         =   0.0000000000000E+00
(PID.TID 0000.0001) %MON g__dynstat_g_wvel_del2       =   0.0000000000000E+00
(PID.TID 0000.0001) %MON g__dynstat_g_theta_max       =   0.0000000000000E+00
(PID.TID 0000.0001) %MON g__dynstat_g_theta_min       =   0.0000000000000E+00
(PID.TID 0000.0001) %MON g__dynstat_g_theta_mean      =   0.0000000000000E+00
(PID.TID 0000.0001) %MON g__dynstat_g_theta_sd        =   0.0000000000000E+00
(PID.TID 0000.0001) %MON g__dynstat_g_theta_del2      =   0.0000000000000E+00
(PID.TID 0000.0001) %MON g__dynstat_g_salt_max        =   0.0000000000000E+00
(PID.TID 0000.0001) %MON g__dynstat_g_salt_min        =   0.0000000000000E+00
(PID.TID 0000.0001) %MON g__dynstat_g_salt_mean       =   0.0000000000000E+00
(PID.TID 0000.0001) %MON g__dynstat_g_salt_sd         =   0.0000000000000E+00
(PID.TID 0000.0001) %MON g__dynstat_g_salt_del2       =   0.0000000000000E+00
(PID.TID 0000.0001) %MON g__dynstat_g_sst_max         =   0.0000000000000E+00
(PID.TID 0000.0001) %MON g__dynstat_g_sst_min         =   0.0000000000000E+00
(PID.TID 0000.0001) %MON g__dynstat_g_sst_mean        =   0.0000000000000E+00
(PID.TID 0000.0001) %MON g__dynstat_g_sst_sd          =   0.0000000000000E+00
(PID.TID 0000.0001) %MON g__dynstat_g_sst_del2        =   0.0000000000000E+00
(PID.TID 0000.0001) %MON g__dynstat_g_sss_max         =   0.0000000000000E+00
(PID.TID 0000.0001) %MON g__dynstat_g_sss_min         =   0.0000000000000E+00
(PID.TID 0000.0001) %MON g__dynstat_g_sss_mean        =   0.0000000000000E+00
(PID.TID 0000.0001) %MON g__dynstat_g_sss_sd          =   0.0000000000000E+00
(PID.TID 0000.0001) %MON g__dynstat_g_sss_del2        =   0.0000000000000E+00
(PID.TID 0000.0001) %MON g__extforcing_g_qnet_max     =   0.0000000000000E+00
(PID.TID 0000.0001) %MON g__extforcing_g_qnet_min     =   0.0000000000000E+00
(PID.TID 0000.0001) %MON g__extforcing_g_qnet_mean    =   0.0000000000000E+00
(PID.TID 0000.0001) %MON g__extforcing_g_qnet_sd      =   0.0000000000000E+00
(PID.TID 0000.0001) %MON g__extforcing_g_qnet_del2    =   0.0000000000000E+00
(PID.TID 0000.0001) %MON g__extforcing_g_empmr_max    =   0.0000000000000E+00
(PID.TID 0000.0001) %MON g__extforcing_g_empmr_min    =   0.0000000000000E+00
(PID.TID 0000.0001) %MON g__extforcing_g_empmr_mean   =   0.0000000000000E+00
(PID.TID 0000.0001) %MON g__extforcing_g_empmr_sd     =   0.0000000000000E+00
(PID.TID 0000.0001) %MON g__extforcing_g_empmr_del2   =   0.0000000000000E+00
(PID.TID 0000.0001) %MON g__extforcing_g_fu_max       =   0.0000000000000E+00
(PID.TID 0000.0001) %MON g__extforcing_g_fu_min       =   0.0000000000000E+00
(PID.TID 0000.0001) %MON g__extforcing_g_fu_mean      =   0.0000000000000E+00
(PID.TID 0000.0001) %MON g__extforcing_g_fu_sd        =   0.0000000000000E+00
(PID.TID 0000.0001) %MON g__extforcing_g_fu_del2      =   0.0000000000000E+00
(PID.TID 0000.0001) %MON g__extforcing_g_fv_max       =   0.0000000000000E+00
(PID.TID 0000.0001) %MON g__extforcing_g_fv_min       =   0.0000000000000E+00
(PID.TID 0000.0001) %MON g__extforcing_g_fv_mean      =   0.0000000000000E+00
(PID.TID 0000.0001) %MON g__extforcing_g_fv_sd        =   0.0000000000000E+00
(PID.TID 0000.0001) %MON g__extforcing_g_fv_del2      =   0.0000000000000E+00
(PID.TID 0000.0001) %MON g__g_vcfl_g_uvel_max         =   0.0000000000000E+00
(PID.TID 0000.0001) %MON g__g_vcfl_g_vvel_max         =   0.0000000000000E+00
(PID.TID 0000.0001) %MON g__g_vcfl_g_wvel_max         =   0.0000000000000E+00
(PID.TID 0000.0001) %MON g__g_vcfl_g_W_hf_max         =   0.0000000000000E+00
(PID.TID 0000.0001) // =======================================================
(PID.TID 0000.0001) // End MONITOR dynamic field statistics
(PID.TID 0000.0001) // =======================================================
 cg2d: Sum(rhs),rhsMax =   0.00000000000000E+00  0.00000000000000E+00
 cg2d: Sum(rhs),rhsMax =   2.35764879841227E-12  1.37009641669028E+01
(PID.TID 0000.0001) // =======================================================
(PID.TID 0000.0001) // Begin MONITOR dynamic field statistics
(PID.TID 0000.0001) // =======================================================
(PID.TID 0000.0001) %MON g__time_tsnumber             =                    60
(PID.TID 0000.0001) %MON g__time_secondsf             =   2.5920000000000E+06
(PID.TID 0000.0001) %MON g__dynstat_g_eta_max         =   0.0000000000000E+00
(PID.TID 0000.0001) %MON g__dynstat_g_eta_min         =   0.0000000000000E+00
(PID.TID 0000.0001) %MON g__dynstat_g_eta_mean        =   0.0000000000000E+00
(PID.TID 0000.0001) %MON g__dynstat_g_eta_sd          =   0.0000000000000E+00
(PID.TID 0000.0001) %MON g__dynstat_g_eta_del2        =   0.0000000000000E+00
(PID.TID 0000.0001) %MON g__dynstat_g_uvel_max        =   0.0000000000000E+00
(PID.TID 0000.0001) %MON g__dynstat_g_uvel_min        =   0.0000000000000E+00
(PID.TID 0000.0001) %MON g__dynstat_g_uvel_mean       =   0.0000000000000E+00
(PID.TID 0000.0001) %MON g__dynstat_g_uvel_sd         =   0.0000000000000E+00
(PID.TID 0000.0001) %MON g__dynstat_g_uvel_del2       =   0.0000000000000E+00
(PID.TID 0000.0001) %MON g__dynstat_g_vvel_max        =   0.0000000000000E+00
(PID.TID 0000.0001) %MON g__dynstat_g_vvel_min        =   0.0000000000000E+00
(PID.TID 0000.0001) %MON g__dynstat_g_vvel_mean       =   0.0000000000000E+00
(PID.TID 0000.0001) %MON g__dynstat_g_vvel_sd         =   0.0000000000000E+00
(PID.TID 0000.0001) %MON g__dynstat_g_vvel_del2       =   0.0000000000000E+00
(PID.TID 0000.0001) %MON g__dynstat_g_wvel_max        =   0.0000000000000E+00
(PID.TID 0000.0001) %MON g__dynstat_g_wvel_min        =   0.0000000000000E+00
(PID.TID 0000.0001) %MON g__dynstat_g_wvel_mean       =   0.0000000000000E+00
(PID.TID 0000.0001) %MON g__dynstat_g_wvel_sd         =   0.0000000000000E+00
(PID.TID 0000.0001) %MON g__dynstat_g_wvel_del2       =   0.0000000000000E+00
(PID.TID 0000.0001) %MON g__dynstat_g_theta_max       =   0.0000000000000E+00
(PID.TID 0000.0001) %MON g__dynstat_g_theta_min       =   0.0000000000000E+00
(PID.TID 0000.0001) %MON g__dynstat_g_theta_mean      =   0.0000000000000E+00
(PID.TID 0000.0001) %MON g__dynstat_g_theta_sd        =   0.0000000000000E+00
(PID.TID 0000.0001) %MON g__dynstat_g_theta_del2      =   0.0000000000000E+00
(PID.TID 0000.0001) %MON g__dynstat_g_salt_max        =   0.0000000000000E+00
(PID.TID 0000.0001) %MON g__dynstat_g_salt_min        =   0.0000000000000E+00
(PID.TID 0000.0001) %MON g__dynstat_g_salt_mean       =   0.0000000000000E+00
(PID.TID 0000.0001) %MON g__dynstat_g_salt_sd         =   0.0000000000000E+00
(PID.TID 0000.0001) %MON g__dynstat_g_salt_del2       =   0.0000000000000E+00
(PID.TID 0000.0001) %MON g__dynstat_g_sst_max         =   0.0000000000000E+00
(PID.TID 0000.0001) %MON g__dynstat_g_sst_min         =   0.0000000000000E+00
(PID.TID 0000.0001) %MON g__dynstat_g_sst_mean        =   0.0000000000000E+00
(PID.TID 0000.0001) %MON g__dynstat_g_sst_sd          =   0.0000000000000E+00
(PID.TID 0000.0001) %MON g__dynstat_g_sst_del2        =   0.0000000000000E+00
(PID.TID 0000.0001) %MON g__dynstat_g_sss_max         =   0.0000000000000E+00
(PID.TID 0000.0001) %MON g__dynstat_g_sss_min         =   0.0000000000000E+00
(PID.TID 0000.0001) %MON g__dynstat_g_sss_mean        =   0.0000000000000E+00
(PID.TID 0000.0001) %MON g__dynstat_g_sss_sd          =   0.0000000000000E+00
(PID.TID 0000.0001) %MON g__dynstat_g_sss_del2        =   0.0000000000000E+00
(PID.TID 0000.0001) %MON g__extforcing_g_qnet_max     =   0.0000000000000E+00
(PID.TID 0000.0001) %MON g__extforcing_g_qnet_min     =   0.0000000000000E+00
(PID.TID 0000.0001) %MON g__extforcing_g_qnet_mean    =   0.0000000000000E+00
(PID.TID 0000.0001) %MON g__extforcing_g_qnet_sd      =   0.0000000000000E+00
(PID.TID 0000.0001) %MON g__extforcing_g_qnet_del2    =   0.0000000000000E+00
(PID.TID 0000.0001) %MON g__extforcing_g_empmr_max    =   0.0000000000000E+00
(PID.TID 0000.0001) %MON g__extforcing_g_empmr_min    =   0.0000000000000E+00
(PID.TID 0000.0001) %MON g__extforcing_g_empmr_mean   =   0.0000000000000E+00
(PID.TID 0000.0001) %MON g__extforcing_g_empmr_sd     =   0.0000000000000E+00
(PID.TID 0000.0001) %MON g__extforcing_g_empmr_del2   =   0.0000000000000E+00
(PID.TID 0000.0001) %MON g__extforcing_g_fu_max       =   0.0000000000000E+00
(PID.TID 0000.0001) %MON g__extforcing_g_fu_min       =   0.0000000000000E+00
(PID.TID 0000.0001) %MON g__extforcing_g_fu_mean      =   0.0000000000000E+00
(PID.TID 0000.0001) %MON g__extforcing_g_fu_sd        =   0.0000000000000E+00
(PID.TID 0000.0001) %MON g__extforcing_g_fu_del2      =   0.0000000000000E+00
(PID.TID 0000.0001) %MON g__extforcing_g_fv_max       =   0.0000000000000E+00
(PID.TID 0000.0001) %MON g__extforcing_g_fv_min       =   0.0000000000000E+00
(PID.TID 0000.0001) %MON g__extforcing_g_fv_mean      =   0.0000000000000E+00
(PID.TID 0000.0001) %MON g__extforcing_g_fv_sd        =   0.0000000000000E+00
(PID.TID 0000.0001) %MON g__extforcing_g_fv_del2      =   0.0000000000000E+00
(PID.TID 0000.0001) %MON g__g_vcfl_g_uvel_max         =   0.0000000000000E+00
(PID.TID 0000.0001) %MON g__g_vcfl_g_vvel_max         =   0.0000000000000E+00
(PID.TID 0000.0001) %MON g__g_vcfl_g_wvel_max         =   0.0000000000000E+00
(PID.TID 0000.0001) %MON g__g_vcfl_g_W_hf_max         =   0.0000000000000E+00
(PID.TID 0000.0001) // =======================================================
(PID.TID 0000.0001) // End MONITOR dynamic field statistics
(PID.TID 0000.0001) // =======================================================
 myIter=  60
(PID.TID 0000.0001) // Model state written, timestep        60
(PID.TID 0000.0001) 
 cg2d: Sum(rhs),rhsMax =   0.00000000000000E+00  0.00000000000000E+00
 cg2d: Sum(rhs),rhsMax =   2.69472638647628E-12  1.37646539938082E+01
(PID.TID 0000.0001) // =======================================================
(PID.TID 0000.0001) // Begin MONITOR dynamic field statistics
(PID.TID 0000.0001) // =======================================================
(PID.TID 0000.0001) %MON g__time_tsnumber             =                    61
(PID.TID 0000.0001) %MON g__time_secondsf             =   2.6352000000000E+06
(PID.TID 0000.0001) %MON g__dynstat_g_eta_max         =   0.0000000000000E+00
(PID.TID 0000.0001) %MON g__dynstat_g_eta_min         =   0.0000000000000E+00
(PID.TID 0000.0001) %MON g__dynstat_g_eta_mean        =   0.0000000000000E+00
(PID.TID 0000.0001) %MON g__dynstat_g_eta_sd          =   0.0000000000000E+00
(PID.TID 0000.0001) %MON g__dynstat_g_eta_del2        =   0.0000000000000E+00
(PID.TID 0000.0001) %MON g__dynstat_g_uvel_max        =   0.0000000000000E+00
(PID.TID 0000.0001) %MON g__dynstat_g_uvel_min        =   0.0000000000000E+00
(PID.TID 0000.0001) %MON g__dynstat_g_uvel_mean       =   0.0000000000000E+00
(PID.TID 0000.0001) %MON g__dynstat_g_uvel_sd         =   0.0000000000000E+00
(PID.TID 0000.0001) %MON g__dynstat_g_uvel_del2       =   0.0000000000000E+00
(PID.TID 0000.0001) %MON g__dynstat_g_vvel_max        =   0.0000000000000E+00
(PID.TID 0000.0001) %MON g__dynstat_g_vvel_min        =   0.0000000000000E+00
(PID.TID 0000.0001) %MON g__dynstat_g_vvel_mean       =   0.0000000000000E+00
(PID.TID 0000.0001) %MON g__dynstat_g_vvel_sd         =   0.0000000000000E+00
(PID.TID 0000.0001) %MON g__dynstat_g_vvel_del2       =   0.0000000000000E+00
(PID.TID 0000.0001) %MON g__dynstat_g_wvel_max        =   0.0000000000000E+00
(PID.TID 0000.0001) %MON g__dynstat_g_wvel_min        =   0.0000000000000E+00
(PID.TID 0000.0001) %MON g__dynstat_g_wvel_mean       =   0.0000000000000E+00
(PID.TID 0000.0001) %MON g__dynstat_g_wvel_sd         =   0.0000000000000E+00
(PID.TID 0000.0001) %MON g__dynstat_g_wvel_del2       =   0.0000000000000E+00
(PID.TID 0000.0001) %MON g__dynstat_g_theta_max       =   0.0000000000000E+00
(PID.TID 0000.0001) %MON g__dynstat_g_theta_min       =   0.0000000000000E+00
(PID.TID 0000.0001) %MON g__dynstat_g_theta_mean      =   0.0000000000000E+00
(PID.TID 0000.0001) %MON g__dynstat_g_theta_sd        =   0.0000000000000E+00
(PID.TID 0000.0001) %MON g__dynstat_g_theta_del2      =   0.0000000000000E+00
(PID.TID 0000.0001) %MON g__dynstat_g_salt_max        =   0.0000000000000E+00
(PID.TID 0000.0001) %MON g__dynstat_g_salt_min        =   0.0000000000000E+00
(PID.TID 0000.0001) %MON g__dynstat_g_salt_mean       =   0.0000000000000E+00
(PID.TID 0000.0001) %MON g__dynstat_g_salt_sd         =   0.0000000000000E+00
(PID.TID 0000.0001) %MON g__dynstat_g_salt_del2       =   0.0000000000000E+00
(PID.TID 0000.0001) %MON g__dynstat_g_sst_max         =   0.0000000000000E+00
(PID.TID 0000.0001) %MON g__dynstat_g_sst_min         =   0.0000000000000E+00
(PID.TID 0000.0001) %MON g__dynstat_g_sst_mean        =   0.0000000000000E+00
(PID.TID 0000.0001) %MON g__dynstat_g_sst_sd          =   0.0000000000000E+00
(PID.TID 0000.0001) %MON g__dynstat_g_sst_del2        =   0.0000000000000E+00
(PID.TID 0000.0001) %MON g__dynstat_g_sss_max         =   0.0000000000000E+00
(PID.TID 0000.0001) %MON g__dynstat_g_sss_min         =   0.0000000000000E+00
(PID.TID 0000.0001) %MON g__dynstat_g_sss_mean        =   0.0000000000000E+00
(PID.TID 0000.0001) %MON g__dynstat_g_sss_sd          =   0.0000000000000E+00
(PID.TID 0000.0001) %MON g__dynstat_g_sss_del2        =   0.0000000000000E+00
(PID.TID 0000.0001) %MON g__extforcing_g_qnet_max     =   0.0000000000000E+00
(PID.TID 0000.0001) %MON g__extforcing_g_qnet_min     =   0.0000000000000E+00
(PID.TID 0000.0001) %MON g__extforcing_g_qnet_mean    =   0.0000000000000E+00
(PID.TID 0000.0001) %MON g__extforcing_g_qnet_sd      =   0.0000000000000E+00
(PID.TID 0000.0001) %MON g__extforcing_g_qnet_del2    =   0.0000000000000E+00
(PID.TID 0000.0001) %MON g__extforcing_g_empmr_max    =   0.0000000000000E+00
(PID.TID 0000.0001) %MON g__extforcing_g_empmr_min    =   0.0000000000000E+00
(PID.TID 0000.0001) %MON g__extforcing_g_empmr_mean   =   0.0000000000000E+00
(PID.TID 0000.0001) %MON g__extforcing_g_empmr_sd     =   0.0000000000000E+00
(PID.TID 0000.0001) %MON g__extforcing_g_empmr_del2   =   0.0000000000000E+00
(PID.TID 0000.0001) %MON g__extforcing_g_fu_max       =   0.0000000000000E+00
(PID.TID 0000.0001) %MON g__extforcing_g_fu_min       =   0.0000000000000E+00
(PID.TID 0000.0001) %MON g__extforcing_g_fu_mean      =   0.0000000000000E+00
(PID.TID 0000.0001) %MON g__extforcing_g_fu_sd        =   0.0000000000000E+00
(PID.TID 0000.0001) %MON g__extforcing_g_fu_del2      =   0.0000000000000E+00
(PID.TID 0000.0001) %MON g__extforcing_g_fv_max       =   0.0000000000000E+00
(PID.TID 0000.0001) %MON g__extforcing_g_fv_min       =   0.0000000000000E+00
(PID.TID 0000.0001) %MON g__extforcing_g_fv_mean      =   0.0000000000000E+00
(PID.TID 0000.0001) %MON g__extforcing_g_fv_sd        =   0.0000000000000E+00
(PID.TID 0000.0001) %MON g__extforcing_g_fv_del2      =   0.0000000000000E+00
(PID.TID 0000.0001) %MON g__g_vcfl_g_uvel_max         =   0.0000000000000E+00
(PID.TID 0000.0001) %MON g__g_vcfl_g_vvel_max         =   0.0000000000000E+00
(PID.TID 0000.0001) %MON g__g_vcfl_g_wvel_max         =   0.0000000000000E+00
(PID.TID 0000.0001) %MON g__g_vcfl_g_W_hf_max         =   0.0000000000000E+00
(PID.TID 0000.0001) // =======================================================
(PID.TID 0000.0001) // End MONITOR dynamic field statistics
(PID.TID 0000.0001) // =======================================================
 cg2d: Sum(rhs),rhsMax =   0.00000000000000E+00  0.00000000000000E+00
 cg2d: Sum(rhs),rhsMax =   2.93461088762825E-12  1.36394324617495E+01
(PID.TID 0000.0001) // =======================================================
(PID.TID 0000.0001) // Begin MONITOR dynamic field statistics
(PID.TID 0000.0001) // =======================================================
(PID.TID 0000.0001) %MON g__time_tsnumber             =                    62
(PID.TID 0000.0001) %MON g__time_secondsf             =   2.6784000000000E+06
(PID.TID 0000.0001) %MON g__dynstat_g_eta_max         =   0.0000000000000E+00
(PID.TID 0000.0001) %MON g__dynstat_g_eta_min         =   0.0000000000000E+00
(PID.TID 0000.0001) %MON g__dynstat_g_eta_mean        =   0.0000000000000E+00
(PID.TID 0000.0001) %MON g__dynstat_g_eta_sd          =   0.0000000000000E+00
(PID.TID 0000.0001) %MON g__dynstat_g_eta_del2        =   0.0000000000000E+00
(PID.TID 0000.0001) %MON g__dynstat_g_uvel_max        =   0.0000000000000E+00
(PID.TID 0000.0001) %MON g__dynstat_g_uvel_min        =   0.0000000000000E+00
(PID.TID 0000.0001) %MON g__dynstat_g_uvel_mean       =   0.0000000000000E+00
(PID.TID 0000.0001) %MON g__dynstat_g_uvel_sd         =   0.0000000000000E+00
(PID.TID 0000.0001) %MON g__dynstat_g_uvel_del2       =   0.0000000000000E+00
(PID.TID 0000.0001) %MON g__dynstat_g_vvel_max        =   0.0000000000000E+00
(PID.TID 0000.0001) %MON g__dynstat_g_vvel_min        =   0.0000000000000E+00
(PID.TID 0000.0001) %MON g__dynstat_g_vvel_mean       =   0.0000000000000E+00
(PID.TID 0000.0001) %MON g__dynstat_g_vvel_sd         =   0.0000000000000E+00
(PID.TID 0000.0001) %MON g__dynstat_g_vvel_del2       =   0.0000000000000E+00
(PID.TID 0000.0001) %MON g__dynstat_g_wvel_max        =   0.0000000000000E+00
(PID.TID 0000.0001) %MON g__dynstat_g_wvel_min        =   0.0000000000000E+00
(PID.TID 0000.0001) %MON g__dynstat_g_wvel_mean       =   0.0000000000000E+00
(PID.TID 0000.0001) %MON g__dynstat_g_wvel_sd         =   0.0000000000000E+00
(PID.TID 0000.0001) %MON g__dynstat_g_wvel_del2       =   0.0000000000000E+00
(PID.TID 0000.0001) %MON g__dynstat_g_theta_max       =   0.0000000000000E+00
(PID.TID 0000.0001) %MON g__dynstat_g_theta_min       =   0.0000000000000E+00
(PID.TID 0000.0001) %MON g__dynstat_g_theta_mean      =   0.0000000000000E+00
(PID.TID 0000.0001) %MON g__dynstat_g_theta_sd        =   0.0000000000000E+00
(PID.TID 0000.0001) %MON g__dynstat_g_theta_del2      =   0.0000000000000E+00
(PID.TID 0000.0001) %MON g__dynstat_g_salt_max        =   0.0000000000000E+00
(PID.TID 0000.0001) %MON g__dynstat_g_salt_min        =   0.0000000000000E+00
(PID.TID 0000.0001) %MON g__dynstat_g_salt_mean       =   0.0000000000000E+00
(PID.TID 0000.0001) %MON g__dynstat_g_salt_sd         =   0.0000000000000E+00
(PID.TID 0000.0001) %MON g__dynstat_g_salt_del2       =   0.0000000000000E+00
(PID.TID 0000.0001) %MON g__dynstat_g_sst_max         =   0.0000000000000E+00
(PID.TID 0000.0001) %MON g__dynstat_g_sst_min         =   0.0000000000000E+00
(PID.TID 0000.0001) %MON g__dynstat_g_sst_mean        =   0.0000000000000E+00
(PID.TID 0000.0001) %MON g__dynstat_g_sst_sd          =   0.0000000000000E+00
(PID.TID 0000.0001) %MON g__dynstat_g_sst_del2        =   0.0000000000000E+00
(PID.TID 0000.0001) %MON g__dynstat_g_sss_max         =   0.0000000000000E+00
(PID.TID 0000.0001) %MON g__dynstat_g_sss_min         =   0.0000000000000E+00
(PID.TID 0000.0001) %MON g__dynstat_g_sss_mean        =   0.0000000000000E+00
(PID.TID 0000.0001) %MON g__dynstat_g_sss_sd          =   0.0000000000000E+00
(PID.TID 0000.0001) %MON g__dynstat_g_sss_del2        =   0.0000000000000E+00
(PID.TID 0000.0001) %MON g__extforcing_g_qnet_max     =   0.0000000000000E+00
(PID.TID 0000.0001) %MON g__extforcing_g_qnet_min     =   0.0000000000000E+00
(PID.TID 0000.0001) %MON g__extforcing_g_qnet_mean    =   0.0000000000000E+00
(PID.TID 0000.0001) %MON g__extforcing_g_qnet_sd      =   0.0000000000000E+00
(PID.TID 0000.0001) %MON g__extforcing_g_qnet_del2    =   0.0000000000000E+00
(PID.TID 0000.0001) %MON g__extforcing_g_empmr_max    =   0.0000000000000E+00
(PID.TID 0000.0001) %MON g__extforcing_g_empmr_min    =   0.0000000000000E+00
(PID.TID 0000.0001) %MON g__extforcing_g_empmr_mean   =   0.0000000000000E+00
(PID.TID 0000.0001) %MON g__extforcing_g_empmr_sd     =   0.0000000000000E+00
(PID.TID 0000.0001) %MON g__extforcing_g_empmr_del2   =   0.0000000000000E+00
(PID.TID 0000.0001) %MON g__extforcing_g_fu_max       =   0.0000000000000E+00
(PID.TID 0000.0001) %MON g__extforcing_g_fu_min       =   0.0000000000000E+00
(PID.TID 0000.0001) %MON g__extforcing_g_fu_mean      =   0.0000000000000E+00
(PID.TID 0000.0001) %MON g__extforcing_g_fu_sd        =   0.0000000000000E+00
(PID.TID 0000.0001) %MON g__extforcing_g_fu_del2      =   0.0000000000000E+00
(PID.TID 0000.0001) %MON g__extforcing_g_fv_max       =   0.0000000000000E+00
(PID.TID 0000.0001) %MON g__extforcing_g_fv_min       =   0.0000000000000E+00
(PID.TID 0000.0001) %MON g__extforcing_g_fv_mean      =   0.0000000000000E+00
(PID.TID 0000.0001) %MON g__extforcing_g_fv_sd        =   0.0000000000000E+00
(PID.TID 0000.0001) %MON g__extforcing_g_fv_del2      =   0.0000000000000E+00
(PID.TID 0000.0001) %MON g__g_vcfl_g_uvel_max         =   0.0000000000000E+00
(PID.TID 0000.0001) %MON g__g_vcfl_g_vvel_max         =   0.0000000000000E+00
(PID.TID 0000.0001) %MON g__g_vcfl_g_wvel_max         =   0.0000000000000E+00
(PID.TID 0000.0001) %MON g__g_vcfl_g_W_hf_max         =   0.0000000000000E+00
(PID.TID 0000.0001) // =======================================================
(PID.TID 0000.0001) // End MONITOR dynamic field statistics
(PID.TID 0000.0001) // =======================================================
 cg2d: Sum(rhs),rhsMax =   0.00000000000000E+00  0.00000000000000E+00
 cg2d: Sum(rhs),rhsMax =   3.13017667341597E-12  1.33374540349375E+01
(PID.TID 0000.0001) // =======================================================
(PID.TID 0000.0001) // Begin MONITOR dynamic field statistics
(PID.TID 0000.0001) // =======================================================
(PID.TID 0000.0001) %MON g__time_tsnumber             =                    63
(PID.TID 0000.0001) %MON g__time_secondsf             =   2.7216000000000E+06
(PID.TID 0000.0001) %MON g__dynstat_g_eta_max         =   0.0000000000000E+00
(PID.TID 0000.0001) %MON g__dynstat_g_eta_min         =   0.0000000000000E+00
(PID.TID 0000.0001) %MON g__dynstat_g_eta_mean        =   0.0000000000000E+00
(PID.TID 0000.0001) %MON g__dynstat_g_eta_sd          =   0.0000000000000E+00
(PID.TID 0000.0001) %MON g__dynstat_g_eta_del2        =   0.0000000000000E+00
(PID.TID 0000.0001) %MON g__dynstat_g_uvel_max        =   0.0000000000000E+00
(PID.TID 0000.0001) %MON g__dynstat_g_uvel_min        =   0.0000000000000E+00
(PID.TID 0000.0001) %MON g__dynstat_g_uvel_mean       =   0.0000000000000E+00
(PID.TID 0000.0001) %MON g__dynstat_g_uvel_sd         =   0.0000000000000E+00
(PID.TID 0000.0001) %MON g__dynstat_g_uvel_del2       =   0.0000000000000E+00
(PID.TID 0000.0001) %MON g__dynstat_g_vvel_max        =   0.0000000000000E+00
(PID.TID 0000.0001) %MON g__dynstat_g_vvel_min        =   0.0000000000000E+00
(PID.TID 0000.0001) %MON g__dynstat_g_vvel_mean       =   0.0000000000000E+00
(PID.TID 0000.0001) %MON g__dynstat_g_vvel_sd         =   0.0000000000000E+00
(PID.TID 0000.0001) %MON g__dynstat_g_vvel_del2       =   0.0000000000000E+00
(PID.TID 0000.0001) %MON g__dynstat_g_wvel_max        =   0.0000000000000E+00
(PID.TID 0000.0001) %MON g__dynstat_g_wvel_min        =   0.0000000000000E+00
(PID.TID 0000.0001) %MON g__dynstat_g_wvel_mean       =   0.0000000000000E+00
(PID.TID 0000.0001) %MON g__dynstat_g_wvel_sd         =   0.0000000000000E+00
(PID.TID 0000.0001) %MON g__dynstat_g_wvel_del2       =   0.0000000000000E+00
(PID.TID 0000.0001) %MON g__dynstat_g_theta_max       =   0.0000000000000E+00
(PID.TID 0000.0001) %MON g__dynstat_g_theta_min       =   0.0000000000000E+00
(PID.TID 0000.0001) %MON g__dynstat_g_theta_mean      =   0.0000000000000E+00
(PID.TID 0000.0001) %MON g__dynstat_g_theta_sd        =   0.0000000000000E+00
(PID.TID 0000.0001) %MON g__dynstat_g_theta_del2      =   0.0000000000000E+00
(PID.TID 0000.0001) %MON g__dynstat_g_salt_max        =   0.0000000000000E+00
(PID.TID 0000.0001) %MON g__dynstat_g_salt_min        =   0.0000000000000E+00
(PID.TID 0000.0001) %MON g__dynstat_g_salt_mean       =   0.0000000000000E+00
(PID.TID 0000.0001) %MON g__dynstat_g_salt_sd         =   0.0000000000000E+00
(PID.TID 0000.0001) %MON g__dynstat_g_salt_del2       =   0.0000000000000E+00
(PID.TID 0000.0001) %MON g__dynstat_g_sst_max         =   0.0000000000000E+00
(PID.TID 0000.0001) %MON g__dynstat_g_sst_min         =   0.0000000000000E+00
(PID.TID 0000.0001) %MON g__dynstat_g_sst_mean        =   0.0000000000000E+00
(PID.TID 0000.0001) %MON g__dynstat_g_sst_sd          =   0.0000000000000E+00
(PID.TID 0000.0001) %MON g__dynstat_g_sst_del2        =   0.0000000000000E+00
(PID.TID 0000.0001) %MON g__dynstat_g_sss_max         =   0.0000000000000E+00
(PID.TID 0000.0001) %MON g__dynstat_g_sss_min         =   0.0000000000000E+00
(PID.TID 0000.0001) %MON g__dynstat_g_sss_mean        =   0.0000000000000E+00
(PID.TID 0000.0001) %MON g__dynstat_g_sss_sd          =   0.0000000000000E+00
(PID.TID 0000.0001) %MON g__dynstat_g_sss_del2        =   0.0000000000000E+00
(PID.TID 0000.0001) %MON g__extforcing_g_qnet_max     =   0.0000000000000E+00
(PID.TID 0000.0001) %MON g__extforcing_g_qnet_min     =   0.0000000000000E+00
(PID.TID 0000.0001) %MON g__extforcing_g_qnet_mean    =   0.0000000000000E+00
(PID.TID 0000.0001) %MON g__extforcing_g_qnet_sd      =   0.0000000000000E+00
(PID.TID 0000.0001) %MON g__extforcing_g_qnet_del2    =   0.0000000000000E+00
(PID.TID 0000.0001) %MON g__extforcing_g_empmr_max    =   0.0000000000000E+00
(PID.TID 0000.0001) %MON g__extforcing_g_empmr_min    =   0.0000000000000E+00
(PID.TID 0000.0001) %MON g__extforcing_g_empmr_mean   =   0.0000000000000E+00
(PID.TID 0000.0001) %MON g__extforcing_g_empmr_sd     =   0.0000000000000E+00
(PID.TID 0000.0001) %MON g__extforcing_g_empmr_del2   =   0.0000000000000E+00
(PID.TID 0000.0001) %MON g__extforcing_g_fu_max       =   0.0000000000000E+00
(PID.TID 0000.0001) %MON g__extforcing_g_fu_min       =   0.0000000000000E+00
(PID.TID 0000.0001) %MON g__extforcing_g_fu_mean      =   0.0000000000000E+00
(PID.TID 0000.0001) %MON g__extforcing_g_fu_sd        =   0.0000000000000E+00
(PID.TID 0000.0001) %MON g__extforcing_g_fu_del2      =   0.0000000000000E+00
(PID.TID 0000.0001) %MON g__extforcing_g_fv_max       =   0.0000000000000E+00
(PID.TID 0000.0001) %MON g__extforcing_g_fv_min       =   0.0000000000000E+00
(PID.TID 0000.0001) %MON g__extforcing_g_fv_mean      =   0.0000000000000E+00
(PID.TID 0000.0001) %MON g__extforcing_g_fv_sd        =   0.0000000000000E+00
(PID.TID 0000.0001) %MON g__extforcing_g_fv_del2      =   0.0000000000000E+00
(PID.TID 0000.0001) %MON g__g_vcfl_g_uvel_max         =   0.0000000000000E+00
(PID.TID 0000.0001) %MON g__g_vcfl_g_vvel_max         =   0.0000000000000E+00
(PID.TID 0000.0001) %MON g__g_vcfl_g_wvel_max         =   0.0000000000000E+00
(PID.TID 0000.0001) %MON g__g_vcfl_g_W_hf_max         =   0.0000000000000E+00
(PID.TID 0000.0001) // =======================================================
(PID.TID 0000.0001) // End MONITOR dynamic field statistics
(PID.TID 0000.0001) // =======================================================
 cg2d: Sum(rhs),rhsMax =   0.00000000000000E+00  0.00000000000000E+00
 cg2d: Sum(rhs),rhsMax =   3.17794401905047E-12  1.28756214604386E+01
(PID.TID 0000.0001) // =======================================================
(PID.TID 0000.0001) // Begin MONITOR dynamic field statistics
(PID.TID 0000.0001) // =======================================================
(PID.TID 0000.0001) %MON g__time_tsnumber             =                    64
(PID.TID 0000.0001) %MON g__time_secondsf             =   2.7648000000000E+06
(PID.TID 0000.0001) %MON g__dynstat_g_eta_max         =   0.0000000000000E+00
(PID.TID 0000.0001) %MON g__dynstat_g_eta_min         =   0.0000000000000E+00
(PID.TID 0000.0001) %MON g__dynstat_g_eta_mean        =   0.0000000000000E+00
(PID.TID 0000.0001) %MON g__dynstat_g_eta_sd          =   0.0000000000000E+00
(PID.TID 0000.0001) %MON g__dynstat_g_eta_del2        =   0.0000000000000E+00
(PID.TID 0000.0001) %MON g__dynstat_g_uvel_max        =   0.0000000000000E+00
(PID.TID 0000.0001) %MON g__dynstat_g_uvel_min        =   0.0000000000000E+00
(PID.TID 0000.0001) %MON g__dynstat_g_uvel_mean       =   0.0000000000000E+00
(PID.TID 0000.0001) %MON g__dynstat_g_uvel_sd         =   0.0000000000000E+00
(PID.TID 0000.0001) %MON g__dynstat_g_uvel_del2       =   0.0000000000000E+00
(PID.TID 0000.0001) %MON g__dynstat_g_vvel_max        =   0.0000000000000E+00
(PID.TID 0000.0001) %MON g__dynstat_g_vvel_min        =   0.0000000000000E+00
(PID.TID 0000.0001) %MON g__dynstat_g_vvel_mean       =   0.0000000000000E+00
(PID.TID 0000.0001) %MON g__dynstat_g_vvel_sd         =   0.0000000000000E+00
(PID.TID 0000.0001) %MON g__dynstat_g_vvel_del2       =   0.0000000000000E+00
(PID.TID 0000.0001) %MON g__dynstat_g_wvel_max        =   0.0000000000000E+00
(PID.TID 0000.0001) %MON g__dynstat_g_wvel_min        =   0.0000000000000E+00
(PID.TID 0000.0001) %MON g__dynstat_g_wvel_mean       =   0.0000000000000E+00
(PID.TID 0000.0001) %MON g__dynstat_g_wvel_sd         =   0.0000000000000E+00
(PID.TID 0000.0001) %MON g__dynstat_g_wvel_del2       =   0.0000000000000E+00
(PID.TID 0000.0001) %MON g__dynstat_g_theta_max       =   0.0000000000000E+00
(PID.TID 0000.0001) %MON g__dynstat_g_theta_min       =   0.0000000000000E+00
(PID.TID 0000.0001) %MON g__dynstat_g_theta_mean      =   0.0000000000000E+00
(PID.TID 0000.0001) %MON g__dynstat_g_theta_sd        =   0.0000000000000E+00
(PID.TID 0000.0001) %MON g__dynstat_g_theta_del2      =   0.0000000000000E+00
(PID.TID 0000.0001) %MON g__dynstat_g_salt_max        =   0.0000000000000E+00
(PID.TID 0000.0001) %MON g__dynstat_g_salt_min        =   0.0000000000000E+00
(PID.TID 0000.0001) %MON g__dynstat_g_salt_mean       =   0.0000000000000E+00
(PID.TID 0000.0001) %MON g__dynstat_g_salt_sd         =   0.0000000000000E+00
(PID.TID 0000.0001) %MON g__dynstat_g_salt_del2       =   0.0000000000000E+00
(PID.TID 0000.0001) %MON g__dynstat_g_sst_max         =   0.0000000000000E+00
(PID.TID 0000.0001) %MON g__dynstat_g_sst_min         =   0.0000000000000E+00
(PID.TID 0000.0001) %MON g__dynstat_g_sst_mean        =   0.0000000000000E+00
(PID.TID 0000.0001) %MON g__dynstat_g_sst_sd          =   0.0000000000000E+00
(PID.TID 0000.0001) %MON g__dynstat_g_sst_del2        =   0.0000000000000E+00
(PID.TID 0000.0001) %MON g__dynstat_g_sss_max         =   0.0000000000000E+00
(PID.TID 0000.0001) %MON g__dynstat_g_sss_min         =   0.0000000000000E+00
(PID.TID 0000.0001) %MON g__dynstat_g_sss_mean        =   0.0000000000000E+00
(PID.TID 0000.0001) %MON g__dynstat_g_sss_sd          =   0.0000000000000E+00
(PID.TID 0000.0001) %MON g__dynstat_g_sss_del2        =   0.0000000000000E+00
(PID.TID 0000.0001) %MON g__extforcing_g_qnet_max     =   0.0000000000000E+00
(PID.TID 0000.0001) %MON g__extforcing_g_qnet_min     =   0.0000000000000E+00
(PID.TID 0000.0001) %MON g__extforcing_g_qnet_mean    =   0.0000000000000E+00
(PID.TID 0000.0001) %MON g__extforcing_g_qnet_sd      =   0.0000000000000E+00
(PID.TID 0000.0001) %MON g__extforcing_g_qnet_del2    =   0.0000000000000E+00
(PID.TID 0000.0001) %MON g__extforcing_g_empmr_max    =   0.0000000000000E+00
(PID.TID 0000.0001) %MON g__extforcing_g_empmr_min    =   0.0000000000000E+00
(PID.TID 0000.0001) %MON g__extforcing_g_empmr_mean   =   0.0000000000000E+00
(PID.TID 0000.0001) %MON g__extforcing_g_empmr_sd     =   0.0000000000000E+00
(PID.TID 0000.0001) %MON g__extforcing_g_empmr_del2   =   0.0000000000000E+00
(PID.TID 0000.0001) %MON g__extforcing_g_fu_max       =   0.0000000000000E+00
(PID.TID 0000.0001) %MON g__extforcing_g_fu_min       =   0.0000000000000E+00
(PID.TID 0000.0001) %MON g__extforcing_g_fu_mean      =   0.0000000000000E+00
(PID.TID 0000.0001) %MON g__extforcing_g_fu_sd        =   0.0000000000000E+00
(PID.TID 0000.0001) %MON g__extforcing_g_fu_del2      =   0.0000000000000E+00
(PID.TID 0000.0001) %MON g__extforcing_g_fv_max       =   0.0000000000000E+00
(PID.TID 0000.0001) %MON g__extforcing_g_fv_min       =   0.0000000000000E+00
(PID.TID 0000.0001) %MON g__extforcing_g_fv_mean      =   0.0000000000000E+00
(PID.TID 0000.0001) %MON g__extforcing_g_fv_sd        =   0.0000000000000E+00
(PID.TID 0000.0001) %MON g__extforcing_g_fv_del2      =   0.0000000000000E+00
(PID.TID 0000.0001) %MON g__g_vcfl_g_uvel_max         =   0.0000000000000E+00
(PID.TID 0000.0001) %MON g__g_vcfl_g_vvel_max         =   0.0000000000000E+00
(PID.TID 0000.0001) %MON g__g_vcfl_g_wvel_max         =   0.0000000000000E+00
(PID.TID 0000.0001) %MON g__g_vcfl_g_W_hf_max         =   0.0000000000000E+00
(PID.TID 0000.0001) // =======================================================
(PID.TID 0000.0001) // End MONITOR dynamic field statistics
(PID.TID 0000.0001) // =======================================================
 cg2d: Sum(rhs),rhsMax =   0.00000000000000E+00  0.00000000000000E+00
 cg2d: Sum(rhs),rhsMax =   3.29006960564371E-12  1.22747851031080E+01
(PID.TID 0000.0001) // =======================================================
(PID.TID 0000.0001) // Begin MONITOR dynamic field statistics
(PID.TID 0000.0001) // =======================================================
(PID.TID 0000.0001) %MON g__time_tsnumber             =                    65
(PID.TID 0000.0001) %MON g__time_secondsf             =   2.8080000000000E+06
(PID.TID 0000.0001) %MON g__dynstat_g_eta_max         =   0.0000000000000E+00
(PID.TID 0000.0001) %MON g__dynstat_g_eta_min         =   0.0000000000000E+00
(PID.TID 0000.0001) %MON g__dynstat_g_eta_mean        =   0.0000000000000E+00
(PID.TID 0000.0001) %MON g__dynstat_g_eta_sd          =   0.0000000000000E+00
(PID.TID 0000.0001) %MON g__dynstat_g_eta_del2        =   0.0000000000000E+00
(PID.TID 0000.0001) %MON g__dynstat_g_uvel_max        =   0.0000000000000E+00
(PID.TID 0000.0001) %MON g__dynstat_g_uvel_min        =   0.0000000000000E+00
(PID.TID 0000.0001) %MON g__dynstat_g_uvel_mean       =   0.0000000000000E+00
(PID.TID 0000.0001) %MON g__dynstat_g_uvel_sd         =   0.0000000000000E+00
(PID.TID 0000.0001) %MON g__dynstat_g_uvel_del2       =   0.0000000000000E+00
(PID.TID 0000.0001) %MON g__dynstat_g_vvel_max        =   0.0000000000000E+00
(PID.TID 0000.0001) %MON g__dynstat_g_vvel_min        =   0.0000000000000E+00
(PID.TID 0000.0001) %MON g__dynstat_g_vvel_mean       =   0.0000000000000E+00
(PID.TID 0000.0001) %MON g__dynstat_g_vvel_sd         =   0.0000000000000E+00
(PID.TID 0000.0001) %MON g__dynstat_g_vvel_del2       =   0.0000000000000E+00
(PID.TID 0000.0001) %MON g__dynstat_g_wvel_max        =   0.0000000000000E+00
(PID.TID 0000.0001) %MON g__dynstat_g_wvel_min        =   0.0000000000000E+00
(PID.TID 0000.0001) %MON g__dynstat_g_wvel_mean       =   0.0000000000000E+00
(PID.TID 0000.0001) %MON g__dynstat_g_wvel_sd         =   0.0000000000000E+00
(PID.TID 0000.0001) %MON g__dynstat_g_wvel_del2       =   0.0000000000000E+00
(PID.TID 0000.0001) %MON g__dynstat_g_theta_max       =   0.0000000000000E+00
(PID.TID 0000.0001) %MON g__dynstat_g_theta_min       =   0.0000000000000E+00
(PID.TID 0000.0001) %MON g__dynstat_g_theta_mean      =   0.0000000000000E+00
(PID.TID 0000.0001) %MON g__dynstat_g_theta_sd        =   0.0000000000000E+00
(PID.TID 0000.0001) %MON g__dynstat_g_theta_del2      =   0.0000000000000E+00
(PID.TID 0000.0001) %MON g__dynstat_g_salt_max        =   0.0000000000000E+00
(PID.TID 0000.0001) %MON g__dynstat_g_salt_min        =   0.0000000000000E+00
(PID.TID 0000.0001) %MON g__dynstat_g_salt_mean       =   0.0000000000000E+00
(PID.TID 0000.0001) %MON g__dynstat_g_salt_sd         =   0.0000000000000E+00
(PID.TID 0000.0001) %MON g__dynstat_g_salt_del2       =   0.0000000000000E+00
(PID.TID 0000.0001) %MON g__dynstat_g_sst_max         =   0.0000000000000E+00
(PID.TID 0000.0001) %MON g__dynstat_g_sst_min         =   0.0000000000000E+00
(PID.TID 0000.0001) %MON g__dynstat_g_sst_mean        =   0.0000000000000E+00
(PID.TID 0000.0001) %MON g__dynstat_g_sst_sd          =   0.0000000000000E+00
(PID.TID 0000.0001) %MON g__dynstat_g_sst_del2        =   0.0000000000000E+00
(PID.TID 0000.0001) %MON g__dynstat_g_sss_max         =   0.0000000000000E+00
(PID.TID 0000.0001) %MON g__dynstat_g_sss_min         =   0.0000000000000E+00
(PID.TID 0000.0001) %MON g__dynstat_g_sss_mean        =   0.0000000000000E+00
(PID.TID 0000.0001) %MON g__dynstat_g_sss_sd          =   0.0000000000000E+00
(PID.TID 0000.0001) %MON g__dynstat_g_sss_del2        =   0.0000000000000E+00
(PID.TID 0000.0001) %MON g__extforcing_g_qnet_max     =   0.0000000000000E+00
(PID.TID 0000.0001) %MON g__extforcing_g_qnet_min     =   0.0000000000000E+00
(PID.TID 0000.0001) %MON g__extforcing_g_qnet_mean    =   0.0000000000000E+00
(PID.TID 0000.0001) %MON g__extforcing_g_qnet_sd      =   0.0000000000000E+00
(PID.TID 0000.0001) %MON g__extforcing_g_qnet_del2    =   0.0000000000000E+00
(PID.TID 0000.0001) %MON g__extforcing_g_empmr_max    =   0.0000000000000E+00
(PID.TID 0000.0001) %MON g__extforcing_g_empmr_min    =   0.0000000000000E+00
(PID.TID 0000.0001) %MON g__extforcing_g_empmr_mean   =   0.0000000000000E+00
(PID.TID 0000.0001) %MON g__extforcing_g_empmr_sd     =   0.0000000000000E+00
(PID.TID 0000.0001) %MON g__extforcing_g_empmr_del2   =   0.0000000000000E+00
(PID.TID 0000.0001) %MON g__extforcing_g_fu_max       =   0.0000000000000E+00
(PID.TID 0000.0001) %MON g__extforcing_g_fu_min       =   0.0000000000000E+00
(PID.TID 0000.0001) %MON g__extforcing_g_fu_mean      =   0.0000000000000E+00
(PID.TID 0000.0001) %MON g__extforcing_g_fu_sd        =   0.0000000000000E+00
(PID.TID 0000.0001) %MON g__extforcing_g_fu_del2      =   0.0000000000000E+00
(PID.TID 0000.0001) %MON g__extforcing_g_fv_max       =   0.0000000000000E+00
(PID.TID 0000.0001) %MON g__extforcing_g_fv_min       =   0.0000000000000E+00
(PID.TID 0000.0001) %MON g__extforcing_g_fv_mean      =   0.0000000000000E+00
(PID.TID 0000.0001) %MON g__extforcing_g_fv_sd        =   0.0000000000000E+00
(PID.TID 0000.0001) %MON g__extforcing_g_fv_del2      =   0.0000000000000E+00
(PID.TID 0000.0001) %MON g__g_vcfl_g_uvel_max         =   0.0000000000000E+00
(PID.TID 0000.0001) %MON g__g_vcfl_g_vvel_max         =   0.0000000000000E+00
(PID.TID 0000.0001) %MON g__g_vcfl_g_wvel_max         =   0.0000000000000E+00
(PID.TID 0000.0001) %MON g__g_vcfl_g_W_hf_max         =   0.0000000000000E+00
(PID.TID 0000.0001) // =======================================================
(PID.TID 0000.0001) // End MONITOR dynamic field statistics
(PID.TID 0000.0001) // =======================================================
 cg2d: Sum(rhs),rhsMax =   0.00000000000000E+00  0.00000000000000E+00
 cg2d: Sum(rhs),rhsMax =   3.17969955920816E-12  1.15588664150394E+01
(PID.TID 0000.0001) // =======================================================
(PID.TID 0000.0001) // Begin MONITOR dynamic field statistics
(PID.TID 0000.0001) // =======================================================
(PID.TID 0000.0001) %MON g__time_tsnumber             =                    66
(PID.TID 0000.0001) %MON g__time_secondsf             =   2.8512000000000E+06
(PID.TID 0000.0001) %MON g__dynstat_g_eta_max         =   0.0000000000000E+00
(PID.TID 0000.0001) %MON g__dynstat_g_eta_min         =   0.0000000000000E+00
(PID.TID 0000.0001) %MON g__dynstat_g_eta_mean        =   0.0000000000000E+00
(PID.TID 0000.0001) %MON g__dynstat_g_eta_sd          =   0.0000000000000E+00
(PID.TID 0000.0001) %MON g__dynstat_g_eta_del2        =   0.0000000000000E+00
(PID.TID 0000.0001) %MON g__dynstat_g_uvel_max        =   0.0000000000000E+00
(PID.TID 0000.0001) %MON g__dynstat_g_uvel_min        =   0.0000000000000E+00
(PID.TID 0000.0001) %MON g__dynstat_g_uvel_mean       =   0.0000000000000E+00
(PID.TID 0000.0001) %MON g__dynstat_g_uvel_sd         =   0.0000000000000E+00
(PID.TID 0000.0001) %MON g__dynstat_g_uvel_del2       =   0.0000000000000E+00
(PID.TID 0000.0001) %MON g__dynstat_g_vvel_max        =   0.0000000000000E+00
(PID.TID 0000.0001) %MON g__dynstat_g_vvel_min        =   0.0000000000000E+00
(PID.TID 0000.0001) %MON g__dynstat_g_vvel_mean       =   0.0000000000000E+00
(PID.TID 0000.0001) %MON g__dynstat_g_vvel_sd         =   0.0000000000000E+00
(PID.TID 0000.0001) %MON g__dynstat_g_vvel_del2       =   0.0000000000000E+00
(PID.TID 0000.0001) %MON g__dynstat_g_wvel_max        =   0.0000000000000E+00
(PID.TID 0000.0001) %MON g__dynstat_g_wvel_min        =   0.0000000000000E+00
(PID.TID 0000.0001) %MON g__dynstat_g_wvel_mean       =   0.0000000000000E+00
(PID.TID 0000.0001) %MON g__dynstat_g_wvel_sd         =   0.0000000000000E+00
(PID.TID 0000.0001) %MON g__dynstat_g_wvel_del2       =   0.0000000000000E+00
(PID.TID 0000.0001) %MON g__dynstat_g_theta_max       =   0.0000000000000E+00
(PID.TID 0000.0001) %MON g__dynstat_g_theta_min       =   0.0000000000000E+00
(PID.TID 0000.0001) %MON g__dynstat_g_theta_mean      =   0.0000000000000E+00
(PID.TID 0000.0001) %MON g__dynstat_g_theta_sd        =   0.0000000000000E+00
(PID.TID 0000.0001) %MON g__dynstat_g_theta_del2      =   0.0000000000000E+00
(PID.TID 0000.0001) %MON g__dynstat_g_salt_max        =   0.0000000000000E+00
(PID.TID 0000.0001) %MON g__dynstat_g_salt_min        =   0.0000000000000E+00
(PID.TID 0000.0001) %MON g__dynstat_g_salt_mean       =   0.0000000000000E+00
(PID.TID 0000.0001) %MON g__dynstat_g_salt_sd         =   0.0000000000000E+00
(PID.TID 0000.0001) %MON g__dynstat_g_salt_del2       =   0.0000000000000E+00
(PID.TID 0000.0001) %MON g__dynstat_g_sst_max         =   0.0000000000000E+00
(PID.TID 0000.0001) %MON g__dynstat_g_sst_min         =   0.0000000000000E+00
(PID.TID 0000.0001) %MON g__dynstat_g_sst_mean        =   0.0000000000000E+00
(PID.TID 0000.0001) %MON g__dynstat_g_sst_sd          =   0.0000000000000E+00
(PID.TID 0000.0001) %MON g__dynstat_g_sst_del2        =   0.0000000000000E+00
(PID.TID 0000.0001) %MON g__dynstat_g_sss_max         =   0.0000000000000E+00
(PID.TID 0000.0001) %MON g__dynstat_g_sss_min         =   0.0000000000000E+00
(PID.TID 0000.0001) %MON g__dynstat_g_sss_mean        =   0.0000000000000E+00
(PID.TID 0000.0001) %MON g__dynstat_g_sss_sd          =   0.0000000000000E+00
(PID.TID 0000.0001) %MON g__dynstat_g_sss_del2        =   0.0000000000000E+00
(PID.TID 0000.0001) %MON g__extforcing_g_qnet_max     =   0.0000000000000E+00
(PID.TID 0000.0001) %MON g__extforcing_g_qnet_min     =   0.0000000000000E+00
(PID.TID 0000.0001) %MON g__extforcing_g_qnet_mean    =   0.0000000000000E+00
(PID.TID 0000.0001) %MON g__extforcing_g_qnet_sd      =   0.0000000000000E+00
(PID.TID 0000.0001) %MON g__extforcing_g_qnet_del2    =   0.0000000000000E+00
(PID.TID 0000.0001) %MON g__extforcing_g_empmr_max    =   0.0000000000000E+00
(PID.TID 0000.0001) %MON g__extforcing_g_empmr_min    =   0.0000000000000E+00
(PID.TID 0000.0001) %MON g__extforcing_g_empmr_mean   =   0.0000000000000E+00
(PID.TID 0000.0001) %MON g__extforcing_g_empmr_sd     =   0.0000000000000E+00
(PID.TID 0000.0001) %MON g__extforcing_g_empmr_del2   =   0.0000000000000E+00
(PID.TID 0000.0001) %MON g__extforcing_g_fu_max       =   0.0000000000000E+00
(PID.TID 0000.0001) %MON g__extforcing_g_fu_min       =   0.0000000000000E+00
(PID.TID 0000.0001) %MON g__extforcing_g_fu_mean      =   0.0000000000000E+00
(PID.TID 0000.0001) %MON g__extforcing_g_fu_sd        =   0.0000000000000E+00
(PID.TID 0000.0001) %MON g__extforcing_g_fu_del2      =   0.0000000000000E+00
(PID.TID 0000.0001) %MON g__extforcing_g_fv_max       =   0.0000000000000E+00
(PID.TID 0000.0001) %MON g__extforcing_g_fv_min       =   0.0000000000000E+00
(PID.TID 0000.0001) %MON g__extforcing_g_fv_mean      =   0.0000000000000E+00
(PID.TID 0000.0001) %MON g__extforcing_g_fv_sd        =   0.0000000000000E+00
(PID.TID 0000.0001) %MON g__extforcing_g_fv_del2      =   0.0000000000000E+00
(PID.TID 0000.0001) %MON g__g_vcfl_g_uvel_max         =   0.0000000000000E+00
(PID.TID 0000.0001) %MON g__g_vcfl_g_vvel_max         =   0.0000000000000E+00
(PID.TID 0000.0001) %MON g__g_vcfl_g_wvel_max         =   0.0000000000000E+00
(PID.TID 0000.0001) %MON g__g_vcfl_g_W_hf_max         =   0.0000000000000E+00
(PID.TID 0000.0001) // =======================================================
(PID.TID 0000.0001) // End MONITOR dynamic field statistics
(PID.TID 0000.0001) // =======================================================
 cg2d: Sum(rhs),rhsMax =   0.00000000000000E+00  0.00000000000000E+00
 cg2d: Sum(rhs),rhsMax =   3.71438990676154E-12  1.07539403354916E+01
(PID.TID 0000.0001) // =======================================================
(PID.TID 0000.0001) // Begin MONITOR dynamic field statistics
(PID.TID 0000.0001) // =======================================================
(PID.TID 0000.0001) %MON g__time_tsnumber             =                    67
(PID.TID 0000.0001) %MON g__time_secondsf             =   2.8944000000000E+06
(PID.TID 0000.0001) %MON g__dynstat_g_eta_max         =   0.0000000000000E+00
(PID.TID 0000.0001) %MON g__dynstat_g_eta_min         =   0.0000000000000E+00
(PID.TID 0000.0001) %MON g__dynstat_g_eta_mean        =   0.0000000000000E+00
(PID.TID 0000.0001) %MON g__dynstat_g_eta_sd          =   0.0000000000000E+00
(PID.TID 0000.0001) %MON g__dynstat_g_eta_del2        =   0.0000000000000E+00
(PID.TID 0000.0001) %MON g__dynstat_g_uvel_max        =   0.0000000000000E+00
(PID.TID 0000.0001) %MON g__dynstat_g_uvel_min        =   0.0000000000000E+00
(PID.TID 0000.0001) %MON g__dynstat_g_uvel_mean       =   0.0000000000000E+00
(PID.TID 0000.0001) %MON g__dynstat_g_uvel_sd         =   0.0000000000000E+00
(PID.TID 0000.0001) %MON g__dynstat_g_uvel_del2       =   0.0000000000000E+00
(PID.TID 0000.0001) %MON g__dynstat_g_vvel_max        =   0.0000000000000E+00
(PID.TID 0000.0001) %MON g__dynstat_g_vvel_min        =   0.0000000000000E+00
(PID.TID 0000.0001) %MON g__dynstat_g_vvel_mean       =   0.0000000000000E+00
(PID.TID 0000.0001) %MON g__dynstat_g_vvel_sd         =   0.0000000000000E+00
(PID.TID 0000.0001) %MON g__dynstat_g_vvel_del2       =   0.0000000000000E+00
(PID.TID 0000.0001) %MON g__dynstat_g_wvel_max        =   0.0000000000000E+00
(PID.TID 0000.0001) %MON g__dynstat_g_wvel_min        =   0.0000000000000E+00
(PID.TID 0000.0001) %MON g__dynstat_g_wvel_mean       =   0.0000000000000E+00
(PID.TID 0000.0001) %MON g__dynstat_g_wvel_sd         =   0.0000000000000E+00
(PID.TID 0000.0001) %MON g__dynstat_g_wvel_del2       =   0.0000000000000E+00
(PID.TID 0000.0001) %MON g__dynstat_g_theta_max       =   0.0000000000000E+00
(PID.TID 0000.0001) %MON g__dynstat_g_theta_min       =   0.0000000000000E+00
(PID.TID 0000.0001) %MON g__dynstat_g_theta_mean      =   0.0000000000000E+00
(PID.TID 0000.0001) %MON g__dynstat_g_theta_sd        =   0.0000000000000E+00
(PID.TID 0000.0001) %MON g__dynstat_g_theta_del2      =   0.0000000000000E+00
(PID.TID 0000.0001) %MON g__dynstat_g_salt_max        =   0.0000000000000E+00
(PID.TID 0000.0001) %MON g__dynstat_g_salt_min        =   0.0000000000000E+00
(PID.TID 0000.0001) %MON g__dynstat_g_salt_mean       =   0.0000000000000E+00
(PID.TID 0000.0001) %MON g__dynstat_g_salt_sd         =   0.0000000000000E+00
(PID.TID 0000.0001) %MON g__dynstat_g_salt_del2       =   0.0000000000000E+00
(PID.TID 0000.0001) %MON g__dynstat_g_sst_max         =   0.0000000000000E+00
(PID.TID 0000.0001) %MON g__dynstat_g_sst_min         =   0.0000000000000E+00
(PID.TID 0000.0001) %MON g__dynstat_g_sst_mean        =   0.0000000000000E+00
(PID.TID 0000.0001) %MON g__dynstat_g_sst_sd          =   0.0000000000000E+00
(PID.TID 0000.0001) %MON g__dynstat_g_sst_del2        =   0.0000000000000E+00
(PID.TID 0000.0001) %MON g__dynstat_g_sss_max         =   0.0000000000000E+00
(PID.TID 0000.0001) %MON g__dynstat_g_sss_min         =   0.0000000000000E+00
(PID.TID 0000.0001) %MON g__dynstat_g_sss_mean        =   0.0000000000000E+00
(PID.TID 0000.0001) %MON g__dynstat_g_sss_sd          =   0.0000000000000E+00
(PID.TID 0000.0001) %MON g__dynstat_g_sss_del2        =   0.0000000000000E+00
(PID.TID 0000.0001) %MON g__extforcing_g_qnet_max     =   0.0000000000000E+00
(PID.TID 0000.0001) %MON g__extforcing_g_qnet_min     =   0.0000000000000E+00
(PID.TID 0000.0001) %MON g__extforcing_g_qnet_mean    =   0.0000000000000E+00
(PID.TID 0000.0001) %MON g__extforcing_g_qnet_sd      =   0.0000000000000E+00
(PID.TID 0000.0001) %MON g__extforcing_g_qnet_del2    =   0.0000000000000E+00
(PID.TID 0000.0001) %MON g__extforcing_g_empmr_max    =   0.0000000000000E+00
(PID.TID 0000.0001) %MON g__extforcing_g_empmr_min    =   0.0000000000000E+00
(PID.TID 0000.0001) %MON g__extforcing_g_empmr_mean   =   0.0000000000000E+00
(PID.TID 0000.0001) %MON g__extforcing_g_empmr_sd     =   0.0000000000000E+00
(PID.TID 0000.0001) %MON g__extforcing_g_empmr_del2   =   0.0000000000000E+00
(PID.TID 0000.0001) %MON g__extforcing_g_fu_max       =   0.0000000000000E+00
(PID.TID 0000.0001) %MON g__extforcing_g_fu_min       =   0.0000000000000E+00
(PID.TID 0000.0001) %MON g__extforcing_g_fu_mean      =   0.0000000000000E+00
(PID.TID 0000.0001) %MON g__extforcing_g_fu_sd        =   0.0000000000000E+00
(PID.TID 0000.0001) %MON g__extforcing_g_fu_del2      =   0.0000000000000E+00
(PID.TID 0000.0001) %MON g__extforcing_g_fv_max       =   0.0000000000000E+00
(PID.TID 0000.0001) %MON g__extforcing_g_fv_min       =   0.0000000000000E+00
(PID.TID 0000.0001) %MON g__extforcing_g_fv_mean      =   0.0000000000000E+00
(PID.TID 0000.0001) %MON g__extforcing_g_fv_sd        =   0.0000000000000E+00
(PID.TID 0000.0001) %MON g__extforcing_g_fv_del2      =   0.0000000000000E+00
(PID.TID 0000.0001) %MON g__g_vcfl_g_uvel_max         =   0.0000000000000E+00
(PID.TID 0000.0001) %MON g__g_vcfl_g_vvel_max         =   0.0000000000000E+00
(PID.TID 0000.0001) %MON g__g_vcfl_g_wvel_max         =   0.0000000000000E+00
(PID.TID 0000.0001) %MON g__g_vcfl_g_W_hf_max         =   0.0000000000000E+00
(PID.TID 0000.0001) // =======================================================
(PID.TID 0000.0001) // End MONITOR dynamic field statistics
(PID.TID 0000.0001) // =======================================================
 cg2d: Sum(rhs),rhsMax =   0.00000000000000E+00  0.00000000000000E+00
 cg2d: Sum(rhs),rhsMax =   3.27418647749766E-12  9.88730994742746E+00
(PID.TID 0000.0001) // =======================================================
(PID.TID 0000.0001) // Begin MONITOR dynamic field statistics
(PID.TID 0000.0001) // =======================================================
(PID.TID 0000.0001) %MON g__time_tsnumber             =                    68
(PID.TID 0000.0001) %MON g__time_secondsf             =   2.9376000000000E+06
(PID.TID 0000.0001) %MON g__dynstat_g_eta_max         =   0.0000000000000E+00
(PID.TID 0000.0001) %MON g__dynstat_g_eta_min         =   0.0000000000000E+00
(PID.TID 0000.0001) %MON g__dynstat_g_eta_mean        =   0.0000000000000E+00
(PID.TID 0000.0001) %MON g__dynstat_g_eta_sd          =   0.0000000000000E+00
(PID.TID 0000.0001) %MON g__dynstat_g_eta_del2        =   0.0000000000000E+00
(PID.TID 0000.0001) %MON g__dynstat_g_uvel_max        =   0.0000000000000E+00
(PID.TID 0000.0001) %MON g__dynstat_g_uvel_min        =   0.0000000000000E+00
(PID.TID 0000.0001) %MON g__dynstat_g_uvel_mean       =   0.0000000000000E+00
(PID.TID 0000.0001) %MON g__dynstat_g_uvel_sd         =   0.0000000000000E+00
(PID.TID 0000.0001) %MON g__dynstat_g_uvel_del2       =   0.0000000000000E+00
(PID.TID 0000.0001) %MON g__dynstat_g_vvel_max        =   0.0000000000000E+00
(PID.TID 0000.0001) %MON g__dynstat_g_vvel_min        =   0.0000000000000E+00
(PID.TID 0000.0001) %MON g__dynstat_g_vvel_mean       =   0.0000000000000E+00
(PID.TID 0000.0001) %MON g__dynstat_g_vvel_sd         =   0.0000000000000E+00
(PID.TID 0000.0001) %MON g__dynstat_g_vvel_del2       =   0.0000000000000E+00
(PID.TID 0000.0001) %MON g__dynstat_g_wvel_max        =   0.0000000000000E+00
(PID.TID 0000.0001) %MON g__dynstat_g_wvel_min        =   0.0000000000000E+00
(PID.TID 0000.0001) %MON g__dynstat_g_wvel_mean       =   0.0000000000000E+00
(PID.TID 0000.0001) %MON g__dynstat_g_wvel_sd         =   0.0000000000000E+00
(PID.TID 0000.0001) %MON g__dynstat_g_wvel_del2       =   0.0000000000000E+00
(PID.TID 0000.0001) %MON g__dynstat_g_theta_max       =   0.0000000000000E+00
(PID.TID 0000.0001) %MON g__dynstat_g_theta_min       =   0.0000000000000E+00
(PID.TID 0000.0001) %MON g__dynstat_g_theta_mean      =   0.0000000000000E+00
(PID.TID 0000.0001) %MON g__dynstat_g_theta_sd        =   0.0000000000000E+00
(PID.TID 0000.0001) %MON g__dynstat_g_theta_del2      =   0.0000000000000E+00
(PID.TID 0000.0001) %MON g__dynstat_g_salt_max        =   0.0000000000000E+00
(PID.TID 0000.0001) %MON g__dynstat_g_salt_min        =   0.0000000000000E+00
(PID.TID 0000.0001) %MON g__dynstat_g_salt_mean       =   0.0000000000000E+00
(PID.TID 0000.0001) %MON g__dynstat_g_salt_sd         =   0.0000000000000E+00
(PID.TID 0000.0001) %MON g__dynstat_g_salt_del2       =   0.0000000000000E+00
(PID.TID 0000.0001) %MON g__dynstat_g_sst_max         =   0.0000000000000E+00
(PID.TID 0000.0001) %MON g__dynstat_g_sst_min         =   0.0000000000000E+00
(PID.TID 0000.0001) %MON g__dynstat_g_sst_mean        =   0.0000000000000E+00
(PID.TID 0000.0001) %MON g__dynstat_g_sst_sd          =   0.0000000000000E+00
(PID.TID 0000.0001) %MON g__dynstat_g_sst_del2        =   0.0000000000000E+00
(PID.TID 0000.0001) %MON g__dynstat_g_sss_max         =   0.0000000000000E+00
(PID.TID 0000.0001) %MON g__dynstat_g_sss_min         =   0.0000000000000E+00
(PID.TID 0000.0001) %MON g__dynstat_g_sss_mean        =   0.0000000000000E+00
(PID.TID 0000.0001) %MON g__dynstat_g_sss_sd          =   0.0000000000000E+00
(PID.TID 0000.0001) %MON g__dynstat_g_sss_del2        =   0.0000000000000E+00
(PID.TID 0000.0001) %MON g__extforcing_g_qnet_max     =   0.0000000000000E+00
(PID.TID 0000.0001) %MON g__extforcing_g_qnet_min     =   0.0000000000000E+00
(PID.TID 0000.0001) %MON g__extforcing_g_qnet_mean    =   0.0000000000000E+00
(PID.TID 0000.0001) %MON g__extforcing_g_qnet_sd      =   0.0000000000000E+00
(PID.TID 0000.0001) %MON g__extforcing_g_qnet_del2    =   0.0000000000000E+00
(PID.TID 0000.0001) %MON g__extforcing_g_empmr_max    =   0.0000000000000E+00
(PID.TID 0000.0001) %MON g__extforcing_g_empmr_min    =   0.0000000000000E+00
(PID.TID 0000.0001) %MON g__extforcing_g_empmr_mean   =   0.0000000000000E+00
(PID.TID 0000.0001) %MON g__extforcing_g_empmr_sd     =   0.0000000000000E+00
(PID.TID 0000.0001) %MON g__extforcing_g_empmr_del2   =   0.0000000000000E+00
(PID.TID 0000.0001) %MON g__extforcing_g_fu_max       =   0.0000000000000E+00
(PID.TID 0000.0001) %MON g__extforcing_g_fu_min       =   0.0000000000000E+00
(PID.TID 0000.0001) %MON g__extforcing_g_fu_mean      =   0.0000000000000E+00
(PID.TID 0000.0001) %MON g__extforcing_g_fu_sd        =   0.0000000000000E+00
(PID.TID 0000.0001) %MON g__extforcing_g_fu_del2      =   0.0000000000000E+00
(PID.TID 0000.0001) %MON g__extforcing_g_fv_max       =   0.0000000000000E+00
(PID.TID 0000.0001) %MON g__extforcing_g_fv_min       =   0.0000000000000E+00
(PID.TID 0000.0001) %MON g__extforcing_g_fv_mean      =   0.0000000000000E+00
(PID.TID 0000.0001) %MON g__extforcing_g_fv_sd        =   0.0000000000000E+00
(PID.TID 0000.0001) %MON g__extforcing_g_fv_del2      =   0.0000000000000E+00
(PID.TID 0000.0001) %MON g__g_vcfl_g_uvel_max         =   0.0000000000000E+00
(PID.TID 0000.0001) %MON g__g_vcfl_g_vvel_max         =   0.0000000000000E+00
(PID.TID 0000.0001) %MON g__g_vcfl_g_wvel_max         =   0.0000000000000E+00
(PID.TID 0000.0001) %MON g__g_vcfl_g_W_hf_max         =   0.0000000000000E+00
(PID.TID 0000.0001) // =======================================================
(PID.TID 0000.0001) // End MONITOR dynamic field statistics
(PID.TID 0000.0001) // =======================================================
 cg2d: Sum(rhs),rhsMax =   0.00000000000000E+00  0.00000000000000E+00
 cg2d: Sum(rhs),rhsMax =   3.25178078908195E-12  8.98660434991350E+00
(PID.TID 0000.0001) // =======================================================
(PID.TID 0000.0001) // Begin MONITOR dynamic field statistics
(PID.TID 0000.0001) // =======================================================
(PID.TID 0000.0001) %MON g__time_tsnumber             =                    69
(PID.TID 0000.0001) %MON g__time_secondsf             =   2.9808000000000E+06
(PID.TID 0000.0001) %MON g__dynstat_g_eta_max         =   0.0000000000000E+00
(PID.TID 0000.0001) %MON g__dynstat_g_eta_min         =   0.0000000000000E+00
(PID.TID 0000.0001) %MON g__dynstat_g_eta_mean        =   0.0000000000000E+00
(PID.TID 0000.0001) %MON g__dynstat_g_eta_sd          =   0.0000000000000E+00
(PID.TID 0000.0001) %MON g__dynstat_g_eta_del2        =   0.0000000000000E+00
(PID.TID 0000.0001) %MON g__dynstat_g_uvel_max        =   0.0000000000000E+00
(PID.TID 0000.0001) %MON g__dynstat_g_uvel_min        =   0.0000000000000E+00
(PID.TID 0000.0001) %MON g__dynstat_g_uvel_mean       =   0.0000000000000E+00
(PID.TID 0000.0001) %MON g__dynstat_g_uvel_sd         =   0.0000000000000E+00
(PID.TID 0000.0001) %MON g__dynstat_g_uvel_del2       =   0.0000000000000E+00
(PID.TID 0000.0001) %MON g__dynstat_g_vvel_max        =   0.0000000000000E+00
(PID.TID 0000.0001) %MON g__dynstat_g_vvel_min        =   0.0000000000000E+00
(PID.TID 0000.0001) %MON g__dynstat_g_vvel_mean       =   0.0000000000000E+00
(PID.TID 0000.0001) %MON g__dynstat_g_vvel_sd         =   0.0000000000000E+00
(PID.TID 0000.0001) %MON g__dynstat_g_vvel_del2       =   0.0000000000000E+00
(PID.TID 0000.0001) %MON g__dynstat_g_wvel_max        =   0.0000000000000E+00
(PID.TID 0000.0001) %MON g__dynstat_g_wvel_min        =   0.0000000000000E+00
(PID.TID 0000.0001) %MON g__dynstat_g_wvel_mean       =   0.0000000000000E+00
(PID.TID 0000.0001) %MON g__dynstat_g_wvel_sd         =   0.0000000000000E+00
(PID.TID 0000.0001) %MON g__dynstat_g_wvel_del2       =   0.0000000000000E+00
(PID.TID 0000.0001) %MON g__dynstat_g_theta_max       =   0.0000000000000E+00
(PID.TID 0000.0001) %MON g__dynstat_g_theta_min       =   0.0000000000000E+00
(PID.TID 0000.0001) %MON g__dynstat_g_theta_mean      =   0.0000000000000E+00
(PID.TID 0000.0001) %MON g__dynstat_g_theta_sd        =   0.0000000000000E+00
(PID.TID 0000.0001) %MON g__dynstat_g_theta_del2      =   0.0000000000000E+00
(PID.TID 0000.0001) %MON g__dynstat_g_salt_max        =   0.0000000000000E+00
(PID.TID 0000.0001) %MON g__dynstat_g_salt_min        =   0.0000000000000E+00
(PID.TID 0000.0001) %MON g__dynstat_g_salt_mean       =   0.0000000000000E+00
(PID.TID 0000.0001) %MON g__dynstat_g_salt_sd         =   0.0000000000000E+00
(PID.TID 0000.0001) %MON g__dynstat_g_salt_del2       =   0.0000000000000E+00
(PID.TID 0000.0001) %MON g__dynstat_g_sst_max         =   0.0000000000000E+00
(PID.TID 0000.0001) %MON g__dynstat_g_sst_min         =   0.0000000000000E+00
(PID.TID 0000.0001) %MON g__dynstat_g_sst_mean        =   0.0000000000000E+00
(PID.TID 0000.0001) %MON g__dynstat_g_sst_sd          =   0.0000000000000E+00
(PID.TID 0000.0001) %MON g__dynstat_g_sst_del2        =   0.0000000000000E+00
(PID.TID 0000.0001) %MON g__dynstat_g_sss_max         =   0.0000000000000E+00
(PID.TID 0000.0001) %MON g__dynstat_g_sss_min         =   0.0000000000000E+00
(PID.TID 0000.0001) %MON g__dynstat_g_sss_mean        =   0.0000000000000E+00
(PID.TID 0000.0001) %MON g__dynstat_g_sss_sd          =   0.0000000000000E+00
(PID.TID 0000.0001) %MON g__dynstat_g_sss_del2        =   0.0000000000000E+00
(PID.TID 0000.0001) %MON g__extforcing_g_qnet_max     =   0.0000000000000E+00
(PID.TID 0000.0001) %MON g__extforcing_g_qnet_min     =   0.0000000000000E+00
(PID.TID 0000.0001) %MON g__extforcing_g_qnet_mean    =   0.0000000000000E+00
(PID.TID 0000.0001) %MON g__extforcing_g_qnet_sd      =   0.0000000000000E+00
(PID.TID 0000.0001) %MON g__extforcing_g_qnet_del2    =   0.0000000000000E+00
(PID.TID 0000.0001) %MON g__extforcing_g_empmr_max    =   0.0000000000000E+00
(PID.TID 0000.0001) %MON g__extforcing_g_empmr_min    =   0.0000000000000E+00
(PID.TID 0000.0001) %MON g__extforcing_g_empmr_mean   =   0.0000000000000E+00
(PID.TID 0000.0001) %MON g__extforcing_g_empmr_sd     =   0.0000000000000E+00
(PID.TID 0000.0001) %MON g__extforcing_g_empmr_del2   =   0.0000000000000E+00
(PID.TID 0000.0001) %MON g__extforcing_g_fu_max       =   0.0000000000000E+00
(PID.TID 0000.0001) %MON g__extforcing_g_fu_min       =   0.0000000000000E+00
(PID.TID 0000.0001) %MON g__extforcing_g_fu_mean      =   0.0000000000000E+00
(PID.TID 0000.0001) %MON g__extforcing_g_fu_sd        =   0.0000000000000E+00
(PID.TID 0000.0001) %MON g__extforcing_g_fu_del2      =   0.0000000000000E+00
(PID.TID 0000.0001) %MON g__extforcing_g_fv_max       =   0.0000000000000E+00
(PID.TID 0000.0001) %MON g__extforcing_g_fv_min       =   0.0000000000000E+00
(PID.TID 0000.0001) %MON g__extforcing_g_fv_mean      =   0.0000000000000E+00
(PID.TID 0000.0001) %MON g__extforcing_g_fv_sd        =   0.0000000000000E+00
(PID.TID 0000.0001) %MON g__extforcing_g_fv_del2      =   0.0000000000000E+00
(PID.TID 0000.0001) %MON g__g_vcfl_g_uvel_max         =   0.0000000000000E+00
(PID.TID 0000.0001) %MON g__g_vcfl_g_vvel_max         =   0.0000000000000E+00
(PID.TID 0000.0001) %MON g__g_vcfl_g_wvel_max         =   0.0000000000000E+00
(PID.TID 0000.0001) %MON g__g_vcfl_g_W_hf_max         =   0.0000000000000E+00
(PID.TID 0000.0001) // =======================================================
(PID.TID 0000.0001) // End MONITOR dynamic field statistics
(PID.TID 0000.0001) // =======================================================
 cg2d: Sum(rhs),rhsMax =   0.00000000000000E+00  0.00000000000000E+00
 cg2d: Sum(rhs),rhsMax =   3.44625716852676E-12  8.07892755116576E+00
(PID.TID 0000.0001) // =======================================================
(PID.TID 0000.0001) // Begin MONITOR dynamic field statistics
(PID.TID 0000.0001) // =======================================================
(PID.TID 0000.0001) %MON g__time_tsnumber             =                    70
(PID.TID 0000.0001) %MON g__time_secondsf             =   3.0240000000000E+06
(PID.TID 0000.0001) %MON g__dynstat_g_eta_max         =   0.0000000000000E+00
(PID.TID 0000.0001) %MON g__dynstat_g_eta_min         =   0.0000000000000E+00
(PID.TID 0000.0001) %MON g__dynstat_g_eta_mean        =   0.0000000000000E+00
(PID.TID 0000.0001) %MON g__dynstat_g_eta_sd          =   0.0000000000000E+00
(PID.TID 0000.0001) %MON g__dynstat_g_eta_del2        =   0.0000000000000E+00
(PID.TID 0000.0001) %MON g__dynstat_g_uvel_max        =   0.0000000000000E+00
(PID.TID 0000.0001) %MON g__dynstat_g_uvel_min        =   0.0000000000000E+00
(PID.TID 0000.0001) %MON g__dynstat_g_uvel_mean       =   0.0000000000000E+00
(PID.TID 0000.0001) %MON g__dynstat_g_uvel_sd         =   0.0000000000000E+00
(PID.TID 0000.0001) %MON g__dynstat_g_uvel_del2       =   0.0000000000000E+00
(PID.TID 0000.0001) %MON g__dynstat_g_vvel_max        =   0.0000000000000E+00
(PID.TID 0000.0001) %MON g__dynstat_g_vvel_min        =   0.0000000000000E+00
(PID.TID 0000.0001) %MON g__dynstat_g_vvel_mean       =   0.0000000000000E+00
(PID.TID 0000.0001) %MON g__dynstat_g_vvel_sd         =   0.0000000000000E+00
(PID.TID 0000.0001) %MON g__dynstat_g_vvel_del2       =   0.0000000000000E+00
(PID.TID 0000.0001) %MON g__dynstat_g_wvel_max        =   0.0000000000000E+00
(PID.TID 0000.0001) %MON g__dynstat_g_wvel_min        =   0.0000000000000E+00
(PID.TID 0000.0001) %MON g__dynstat_g_wvel_mean       =   0.0000000000000E+00
(PID.TID 0000.0001) %MON g__dynstat_g_wvel_sd         =   0.0000000000000E+00
(PID.TID 0000.0001) %MON g__dynstat_g_wvel_del2       =   0.0000000000000E+00
(PID.TID 0000.0001) %MON g__dynstat_g_theta_max       =   0.0000000000000E+00
(PID.TID 0000.0001) %MON g__dynstat_g_theta_min       =   0.0000000000000E+00
(PID.TID 0000.0001) %MON g__dynstat_g_theta_mean      =   0.0000000000000E+00
(PID.TID 0000.0001) %MON g__dynstat_g_theta_sd        =   0.0000000000000E+00
(PID.TID 0000.0001) %MON g__dynstat_g_theta_del2      =   0.0000000000000E+00
(PID.TID 0000.0001) %MON g__dynstat_g_salt_max        =   0.0000000000000E+00
(PID.TID 0000.0001) %MON g__dynstat_g_salt_min        =   0.0000000000000E+00
(PID.TID 0000.0001) %MON g__dynstat_g_salt_mean       =   0.0000000000000E+00
(PID.TID 0000.0001) %MON g__dynstat_g_salt_sd         =   0.0000000000000E+00
(PID.TID 0000.0001) %MON g__dynstat_g_salt_del2       =   0.0000000000000E+00
(PID.TID 0000.0001) %MON g__dynstat_g_sst_max         =   0.0000000000000E+00
(PID.TID 0000.0001) %MON g__dynstat_g_sst_min         =   0.0000000000000E+00
(PID.TID 0000.0001) %MON g__dynstat_g_sst_mean        =   0.0000000000000E+00
(PID.TID 0000.0001) %MON g__dynstat_g_sst_sd          =   0.0000000000000E+00
(PID.TID 0000.0001) %MON g__dynstat_g_sst_del2        =   0.0000000000000E+00
(PID.TID 0000.0001) %MON g__dynstat_g_sss_max         =   0.0000000000000E+00
(PID.TID 0000.0001) %MON g__dynstat_g_sss_min         =   0.0000000000000E+00
(PID.TID 0000.0001) %MON g__dynstat_g_sss_mean        =   0.0000000000000E+00
(PID.TID 0000.0001) %MON g__dynstat_g_sss_sd          =   0.0000000000000E+00
(PID.TID 0000.0001) %MON g__dynstat_g_sss_del2        =   0.0000000000000E+00
(PID.TID 0000.0001) %MON g__extforcing_g_qnet_max     =   0.0000000000000E+00
(PID.TID 0000.0001) %MON g__extforcing_g_qnet_min     =   0.0000000000000E+00
(PID.TID 0000.0001) %MON g__extforcing_g_qnet_mean    =   0.0000000000000E+00
(PID.TID 0000.0001) %MON g__extforcing_g_qnet_sd      =   0.0000000000000E+00
(PID.TID 0000.0001) %MON g__extforcing_g_qnet_del2    =   0.0000000000000E+00
(PID.TID 0000.0001) %MON g__extforcing_g_empmr_max    =   0.0000000000000E+00
(PID.TID 0000.0001) %MON g__extforcing_g_empmr_min    =   0.0000000000000E+00
(PID.TID 0000.0001) %MON g__extforcing_g_empmr_mean   =   0.0000000000000E+00
(PID.TID 0000.0001) %MON g__extforcing_g_empmr_sd     =   0.0000000000000E+00
(PID.TID 0000.0001) %MON g__extforcing_g_empmr_del2   =   0.0000000000000E+00
(PID.TID 0000.0001) %MON g__extforcing_g_fu_max       =   0.0000000000000E+00
(PID.TID 0000.0001) %MON g__extforcing_g_fu_min       =   0.0000000000000E+00
(PID.TID 0000.0001) %MON g__extforcing_g_fu_mean      =   0.0000000000000E+00
(PID.TID 0000.0001) %MON g__extforcing_g_fu_sd        =   0.0000000000000E+00
(PID.TID 0000.0001) %MON g__extforcing_g_fu_del2      =   0.0000000000000E+00
(PID.TID 0000.0001) %MON g__extforcing_g_fv_max       =   0.0000000000000E+00
(PID.TID 0000.0001) %MON g__extforcing_g_fv_min       =   0.0000000000000E+00
(PID.TID 0000.0001) %MON g__extforcing_g_fv_mean      =   0.0000000000000E+00
(PID.TID 0000.0001) %MON g__extforcing_g_fv_sd        =   0.0000000000000E+00
(PID.TID 0000.0001) %MON g__extforcing_g_fv_del2      =   0.0000000000000E+00
(PID.TID 0000.0001) %MON g__g_vcfl_g_uvel_max         =   0.0000000000000E+00
(PID.TID 0000.0001) %MON g__g_vcfl_g_vvel_max         =   0.0000000000000E+00
(PID.TID 0000.0001) %MON g__g_vcfl_g_wvel_max         =   0.0000000000000E+00
(PID.TID 0000.0001) %MON g__g_vcfl_g_W_hf_max         =   0.0000000000000E+00
(PID.TID 0000.0001) // =======================================================
(PID.TID 0000.0001) // End MONITOR dynamic field statistics
(PID.TID 0000.0001) // =======================================================
 myIter=  70
(PID.TID 0000.0001) // Model state written, timestep        70
(PID.TID 0000.0001) 
 cg2d: Sum(rhs),rhsMax =   0.00000000000000E+00  0.00000000000000E+00
 cg2d: Sum(rhs),rhsMax =   3.52166906747442E-12  7.98205113094410E+00
(PID.TID 0000.0001) // =======================================================
(PID.TID 0000.0001) // Begin MONITOR dynamic field statistics
(PID.TID 0000.0001) // =======================================================
(PID.TID 0000.0001) %MON g__time_tsnumber             =                    71
(PID.TID 0000.0001) %MON g__time_secondsf             =   3.0672000000000E+06
(PID.TID 0000.0001) %MON g__dynstat_g_eta_max         =   0.0000000000000E+00
(PID.TID 0000.0001) %MON g__dynstat_g_eta_min         =   0.0000000000000E+00
(PID.TID 0000.0001) %MON g__dynstat_g_eta_mean        =   0.0000000000000E+00
(PID.TID 0000.0001) %MON g__dynstat_g_eta_sd          =   0.0000000000000E+00
(PID.TID 0000.0001) %MON g__dynstat_g_eta_del2        =   0.0000000000000E+00
(PID.TID 0000.0001) %MON g__dynstat_g_uvel_max        =   0.0000000000000E+00
(PID.TID 0000.0001) %MON g__dynstat_g_uvel_min        =   0.0000000000000E+00
(PID.TID 0000.0001) %MON g__dynstat_g_uvel_mean       =   0.0000000000000E+00
(PID.TID 0000.0001) %MON g__dynstat_g_uvel_sd         =   0.0000000000000E+00
(PID.TID 0000.0001) %MON g__dynstat_g_uvel_del2       =   0.0000000000000E+00
(PID.TID 0000.0001) %MON g__dynstat_g_vvel_max        =   0.0000000000000E+00
(PID.TID 0000.0001) %MON g__dynstat_g_vvel_min        =   0.0000000000000E+00
(PID.TID 0000.0001) %MON g__dynstat_g_vvel_mean       =   0.0000000000000E+00
(PID.TID 0000.0001) %MON g__dynstat_g_vvel_sd         =   0.0000000000000E+00
(PID.TID 0000.0001) %MON g__dynstat_g_vvel_del2       =   0.0000000000000E+00
(PID.TID 0000.0001) %MON g__dynstat_g_wvel_max        =   0.0000000000000E+00
(PID.TID 0000.0001) %MON g__dynstat_g_wvel_min        =   0.0000000000000E+00
(PID.TID 0000.0001) %MON g__dynstat_g_wvel_mean       =   0.0000000000000E+00
(PID.TID 0000.0001) %MON g__dynstat_g_wvel_sd         =   0.0000000000000E+00
(PID.TID 0000.0001) %MON g__dynstat_g_wvel_del2       =   0.0000000000000E+00
(PID.TID 0000.0001) %MON g__dynstat_g_theta_max       =   0.0000000000000E+00
(PID.TID 0000.0001) %MON g__dynstat_g_theta_min       =   0.0000000000000E+00
(PID.TID 0000.0001) %MON g__dynstat_g_theta_mean      =   0.0000000000000E+00
(PID.TID 0000.0001) %MON g__dynstat_g_theta_sd        =   0.0000000000000E+00
(PID.TID 0000.0001) %MON g__dynstat_g_theta_del2      =   0.0000000000000E+00
(PID.TID 0000.0001) %MON g__dynstat_g_salt_max        =   0.0000000000000E+00
(PID.TID 0000.0001) %MON g__dynstat_g_salt_min        =   0.0000000000000E+00
(PID.TID 0000.0001) %MON g__dynstat_g_salt_mean       =   0.0000000000000E+00
(PID.TID 0000.0001) %MON g__dynstat_g_salt_sd         =   0.0000000000000E+00
(PID.TID 0000.0001) %MON g__dynstat_g_salt_del2       =   0.0000000000000E+00
(PID.TID 0000.0001) %MON g__dynstat_g_sst_max         =   0.0000000000000E+00
(PID.TID 0000.0001) %MON g__dynstat_g_sst_min         =   0.0000000000000E+00
(PID.TID 0000.0001) %MON g__dynstat_g_sst_mean        =   0.0000000000000E+00
(PID.TID 0000.0001) %MON g__dynstat_g_sst_sd          =   0.0000000000000E+00
(PID.TID 0000.0001) %MON g__dynstat_g_sst_del2        =   0.0000000000000E+00
(PID.TID 0000.0001) %MON g__dynstat_g_sss_max         =   0.0000000000000E+00
(PID.TID 0000.0001) %MON g__dynstat_g_sss_min         =   0.0000000000000E+00
(PID.TID 0000.0001) %MON g__dynstat_g_sss_mean        =   0.0000000000000E+00
(PID.TID 0000.0001) %MON g__dynstat_g_sss_sd          =   0.0000000000000E+00
(PID.TID 0000.0001) %MON g__dynstat_g_sss_del2        =   0.0000000000000E+00
(PID.TID 0000.0001) %MON g__extforcing_g_qnet_max     =   0.0000000000000E+00
(PID.TID 0000.0001) %MON g__extforcing_g_qnet_min     =   0.0000000000000E+00
(PID.TID 0000.0001) %MON g__extforcing_g_qnet_mean    =   0.0000000000000E+00
(PID.TID 0000.0001) %MON g__extforcing_g_qnet_sd      =   0.0000000000000E+00
(PID.TID 0000.0001) %MON g__extforcing_g_qnet_del2    =   0.0000000000000E+00
(PID.TID 0000.0001) %MON g__extforcing_g_empmr_max    =   0.0000000000000E+00
(PID.TID 0000.0001) %MON g__extforcing_g_empmr_min    =   0.0000000000000E+00
(PID.TID 0000.0001) %MON g__extforcing_g_empmr_mean   =   0.0000000000000E+00
(PID.TID 0000.0001) %MON g__extforcing_g_empmr_sd     =   0.0000000000000E+00
(PID.TID 0000.0001) %MON g__extforcing_g_empmr_del2   =   0.0000000000000E+00
(PID.TID 0000.0001) %MON g__extforcing_g_fu_max       =   0.0000000000000E+00
(PID.TID 0000.0001) %MON g__extforcing_g_fu_min       =   0.0000000000000E+00
(PID.TID 0000.0001) %MON g__extforcing_g_fu_mean      =   0.0000000000000E+00
(PID.TID 0000.0001) %MON g__extforcing_g_fu_sd        =   0.0000000000000E+00
(PID.TID 0000.0001) %MON g__extforcing_g_fu_del2      =   0.0000000000000E+00
(PID.TID 0000.0001) %MON g__extforcing_g_fv_max       =   0.0000000000000E+00
(PID.TID 0000.0001) %MON g__extforcing_g_fv_min       =   0.0000000000000E+00
(PID.TID 0000.0001) %MON g__extforcing_g_fv_mean      =   0.0000000000000E+00
(PID.TID 0000.0001) %MON g__extforcing_g_fv_sd        =   0.0000000000000E+00
(PID.TID 0000.0001) %MON g__extforcing_g_fv_del2      =   0.0000000000000E+00
(PID.TID 0000.0001) %MON g__g_vcfl_g_uvel_max         =   0.0000000000000E+00
(PID.TID 0000.0001) %MON g__g_vcfl_g_vvel_max         =   0.0000000000000E+00
(PID.TID 0000.0001) %MON g__g_vcfl_g_wvel_max         =   0.0000000000000E+00
(PID.TID 0000.0001) %MON g__g_vcfl_g_W_hf_max         =   0.0000000000000E+00
(PID.TID 0000.0001) // =======================================================
(PID.TID 0000.0001) // End MONITOR dynamic field statistics
(PID.TID 0000.0001) // =======================================================
 cg2d: Sum(rhs),rhsMax =   0.00000000000000E+00  0.00000000000000E+00
 cg2d: Sum(rhs),rhsMax =   2.89610002646157E-12  8.00388417689157E+00
(PID.TID 0000.0001) // =======================================================
(PID.TID 0000.0001) // Begin MONITOR dynamic field statistics
(PID.TID 0000.0001) // =======================================================
(PID.TID 0000.0001) %MON g__time_tsnumber             =                    72
(PID.TID 0000.0001) %MON g__time_secondsf             =   3.1104000000000E+06
(PID.TID 0000.0001) %MON g__dynstat_g_eta_max         =   0.0000000000000E+00
(PID.TID 0000.0001) %MON g__dynstat_g_eta_min         =   0.0000000000000E+00
(PID.TID 0000.0001) %MON g__dynstat_g_eta_mean        =   0.0000000000000E+00
(PID.TID 0000.0001) %MON g__dynstat_g_eta_sd          =   0.0000000000000E+00
(PID.TID 0000.0001) %MON g__dynstat_g_eta_del2        =   0.0000000000000E+00
(PID.TID 0000.0001) %MON g__dynstat_g_uvel_max        =   0.0000000000000E+00
(PID.TID 0000.0001) %MON g__dynstat_g_uvel_min        =   0.0000000000000E+00
(PID.TID 0000.0001) %MON g__dynstat_g_uvel_mean       =   0.0000000000000E+00
(PID.TID 0000.0001) %MON g__dynstat_g_uvel_sd         =   0.0000000000000E+00
(PID.TID 0000.0001) %MON g__dynstat_g_uvel_del2       =   0.0000000000000E+00
(PID.TID 0000.0001) %MON g__dynstat_g_vvel_max        =   0.0000000000000E+00
(PID.TID 0000.0001) %MON g__dynstat_g_vvel_min        =   0.0000000000000E+00
(PID.TID 0000.0001) %MON g__dynstat_g_vvel_mean       =   0.0000000000000E+00
(PID.TID 0000.0001) %MON g__dynstat_g_vvel_sd         =   0.0000000000000E+00
(PID.TID 0000.0001) %MON g__dynstat_g_vvel_del2       =   0.0000000000000E+00
(PID.TID 0000.0001) %MON g__dynstat_g_wvel_max        =   0.0000000000000E+00
(PID.TID 0000.0001) %MON g__dynstat_g_wvel_min        =   0.0000000000000E+00
(PID.TID 0000.0001) %MON g__dynstat_g_wvel_mean       =   0.0000000000000E+00
(PID.TID 0000.0001) %MON g__dynstat_g_wvel_sd         =   0.0000000000000E+00
(PID.TID 0000.0001) %MON g__dynstat_g_wvel_del2       =   0.0000000000000E+00
(PID.TID 0000.0001) %MON g__dynstat_g_theta_max       =   0.0000000000000E+00
(PID.TID 0000.0001) %MON g__dynstat_g_theta_min       =   0.0000000000000E+00
(PID.TID 0000.0001) %MON g__dynstat_g_theta_mean      =   0.0000000000000E+00
(PID.TID 0000.0001) %MON g__dynstat_g_theta_sd        =   0.0000000000000E+00
(PID.TID 0000.0001) %MON g__dynstat_g_theta_del2      =   0.0000000000000E+00
(PID.TID 0000.0001) %MON g__dynstat_g_salt_max        =   0.0000000000000E+00
(PID.TID 0000.0001) %MON g__dynstat_g_salt_min        =   0.0000000000000E+00
(PID.TID 0000.0001) %MON g__dynstat_g_salt_mean       =   0.0000000000000E+00
(PID.TID 0000.0001) %MON g__dynstat_g_salt_sd         =   0.0000000000000E+00
(PID.TID 0000.0001) %MON g__dynstat_g_salt_del2       =   0.0000000000000E+00
(PID.TID 0000.0001) %MON g__dynstat_g_sst_max         =   0.0000000000000E+00
(PID.TID 0000.0001) %MON g__dynstat_g_sst_min         =   0.0000000000000E+00
(PID.TID 0000.0001) %MON g__dynstat_g_sst_mean        =   0.0000000000000E+00
(PID.TID 0000.0001) %MON g__dynstat_g_sst_sd          =   0.0000000000000E+00
(PID.TID 0000.0001) %MON g__dynstat_g_sst_del2        =   0.0000000000000E+00
(PID.TID 0000.0001) %MON g__dynstat_g_sss_max         =   0.0000000000000E+00
(PID.TID 0000.0001) %MON g__dynstat_g_sss_min         =   0.0000000000000E+00
(PID.TID 0000.0001) %MON g__dynstat_g_sss_mean        =   0.0000000000000E+00
(PID.TID 0000.0001) %MON g__dynstat_g_sss_sd          =   0.0000000000000E+00
(PID.TID 0000.0001) %MON g__dynstat_g_sss_del2        =   0.0000000000000E+00
(PID.TID 0000.0001) %MON g__extforcing_g_qnet_max     =   0.0000000000000E+00
(PID.TID 0000.0001) %MON g__extforcing_g_qnet_min     =   0.0000000000000E+00
(PID.TID 0000.0001) %MON g__extforcing_g_qnet_mean    =   0.0000000000000E+00
(PID.TID 0000.0001) %MON g__extforcing_g_qnet_sd      =   0.0000000000000E+00
(PID.TID 0000.0001) %MON g__extforcing_g_qnet_del2    =   0.0000000000000E+00
(PID.TID 0000.0001) %MON g__extforcing_g_empmr_max    =   0.0000000000000E+00
(PID.TID 0000.0001) %MON g__extforcing_g_empmr_min    =   0.0000000000000E+00
(PID.TID 0000.0001) %MON g__extforcing_g_empmr_mean   =   0.0000000000000E+00
(PID.TID 0000.0001) %MON g__extforcing_g_empmr_sd     =   0.0000000000000E+00
(PID.TID 0000.0001) %MON g__extforcing_g_empmr_del2   =   0.0000000000000E+00
(PID.TID 0000.0001) %MON g__extforcing_g_fu_max       =   0.0000000000000E+00
(PID.TID 0000.0001) %MON g__extforcing_g_fu_min       =   0.0000000000000E+00
(PID.TID 0000.0001) %MON g__extforcing_g_fu_mean      =   0.0000000000000E+00
(PID.TID 0000.0001) %MON g__extforcing_g_fu_sd        =   0.0000000000000E+00
(PID.TID 0000.0001) %MON g__extforcing_g_fu_del2      =   0.0000000000000E+00
(PID.TID 0000.0001) %MON g__extforcing_g_fv_max       =   0.0000000000000E+00
(PID.TID 0000.0001) %MON g__extforcing_g_fv_min       =   0.0000000000000E+00
(PID.TID 0000.0001) %MON g__extforcing_g_fv_mean      =   0.0000000000000E+00
(PID.TID 0000.0001) %MON g__extforcing_g_fv_sd        =   0.0000000000000E+00
(PID.TID 0000.0001) %MON g__extforcing_g_fv_del2      =   0.0000000000000E+00
(PID.TID 0000.0001) %MON g__g_vcfl_g_uvel_max         =   0.0000000000000E+00
(PID.TID 0000.0001) %MON g__g_vcfl_g_vvel_max         =   0.0000000000000E+00
(PID.TID 0000.0001) %MON g__g_vcfl_g_wvel_max         =   0.0000000000000E+00
(PID.TID 0000.0001) %MON g__g_vcfl_g_W_hf_max         =   0.0000000000000E+00
(PID.TID 0000.0001) // =======================================================
(PID.TID 0000.0001) // End MONITOR dynamic field statistics
(PID.TID 0000.0001) // =======================================================
 cg2d: Sum(rhs),rhsMax =   0.00000000000000E+00  0.00000000000000E+00
 cg2d: Sum(rhs),rhsMax =   3.19839987827919E-12  8.02911791318482E+00
(PID.TID 0000.0001) // =======================================================
(PID.TID 0000.0001) // Begin MONITOR dynamic field statistics
(PID.TID 0000.0001) // =======================================================
(PID.TID 0000.0001) %MON g__time_tsnumber             =                    73
(PID.TID 0000.0001) %MON g__time_secondsf             =   3.1536000000000E+06
(PID.TID 0000.0001) %MON g__dynstat_g_eta_max         =   0.0000000000000E+00
(PID.TID 0000.0001) %MON g__dynstat_g_eta_min         =   0.0000000000000E+00
(PID.TID 0000.0001) %MON g__dynstat_g_eta_mean        =   0.0000000000000E+00
(PID.TID 0000.0001) %MON g__dynstat_g_eta_sd          =   0.0000000000000E+00
(PID.TID 0000.0001) %MON g__dynstat_g_eta_del2        =   0.0000000000000E+00
(PID.TID 0000.0001) %MON g__dynstat_g_uvel_max        =   0.0000000000000E+00
(PID.TID 0000.0001) %MON g__dynstat_g_uvel_min        =   0.0000000000000E+00
(PID.TID 0000.0001) %MON g__dynstat_g_uvel_mean       =   0.0000000000000E+00
(PID.TID 0000.0001) %MON g__dynstat_g_uvel_sd         =   0.0000000000000E+00
(PID.TID 0000.0001) %MON g__dynstat_g_uvel_del2       =   0.0000000000000E+00
(PID.TID 0000.0001) %MON g__dynstat_g_vvel_max        =   0.0000000000000E+00
(PID.TID 0000.0001) %MON g__dynstat_g_vvel_min        =   0.0000000000000E+00
(PID.TID 0000.0001) %MON g__dynstat_g_vvel_mean       =   0.0000000000000E+00
(PID.TID 0000.0001) %MON g__dynstat_g_vvel_sd         =   0.0000000000000E+00
(PID.TID 0000.0001) %MON g__dynstat_g_vvel_del2       =   0.0000000000000E+00
(PID.TID 0000.0001) %MON g__dynstat_g_wvel_max        =   0.0000000000000E+00
(PID.TID 0000.0001) %MON g__dynstat_g_wvel_min        =   0.0000000000000E+00
(PID.TID 0000.0001) %MON g__dynstat_g_wvel_mean       =   0.0000000000000E+00
(PID.TID 0000.0001) %MON g__dynstat_g_wvel_sd         =   0.0000000000000E+00
(PID.TID 0000.0001) %MON g__dynstat_g_wvel_del2       =   0.0000000000000E+00
(PID.TID 0000.0001) %MON g__dynstat_g_theta_max       =   0.0000000000000E+00
(PID.TID 0000.0001) %MON g__dynstat_g_theta_min       =   0.0000000000000E+00
(PID.TID 0000.0001) %MON g__dynstat_g_theta_mean      =   0.0000000000000E+00
(PID.TID 0000.0001) %MON g__dynstat_g_theta_sd        =   0.0000000000000E+00
(PID.TID 0000.0001) %MON g__dynstat_g_theta_del2      =   0.0000000000000E+00
(PID.TID 0000.0001) %MON g__dynstat_g_salt_max        =   0.0000000000000E+00
(PID.TID 0000.0001) %MON g__dynstat_g_salt_min        =   0.0000000000000E+00
(PID.TID 0000.0001) %MON g__dynstat_g_salt_mean       =   0.0000000000000E+00
(PID.TID 0000.0001) %MON g__dynstat_g_salt_sd         =   0.0000000000000E+00
(PID.TID 0000.0001) %MON g__dynstat_g_salt_del2       =   0.0000000000000E+00
(PID.TID 0000.0001) %MON g__dynstat_g_sst_max         =   0.0000000000000E+00
(PID.TID 0000.0001) %MON g__dynstat_g_sst_min         =   0.0000000000000E+00
(PID.TID 0000.0001) %MON g__dynstat_g_sst_mean        =   0.0000000000000E+00
(PID.TID 0000.0001) %MON g__dynstat_g_sst_sd          =   0.0000000000000E+00
(PID.TID 0000.0001) %MON g__dynstat_g_sst_del2        =   0.0000000000000E+00
(PID.TID 0000.0001) %MON g__dynstat_g_sss_max         =   0.0000000000000E+00
(PID.TID 0000.0001) %MON g__dynstat_g_sss_min         =   0.0000000000000E+00
(PID.TID 0000.0001) %MON g__dynstat_g_sss_mean        =   0.0000000000000E+00
(PID.TID 0000.0001) %MON g__dynstat_g_sss_sd          =   0.0000000000000E+00
(PID.TID 0000.0001) %MON g__dynstat_g_sss_del2        =   0.0000000000000E+00
(PID.TID 0000.0001) %MON g__extforcing_g_qnet_max     =   0.0000000000000E+00
(PID.TID 0000.0001) %MON g__extforcing_g_qnet_min     =   0.0000000000000E+00
(PID.TID 0000.0001) %MON g__extforcing_g_qnet_mean    =   0.0000000000000E+00
(PID.TID 0000.0001) %MON g__extforcing_g_qnet_sd      =   0.0000000000000E+00
(PID.TID 0000.0001) %MON g__extforcing_g_qnet_del2    =   0.0000000000000E+00
(PID.TID 0000.0001) %MON g__extforcing_g_empmr_max    =   0.0000000000000E+00
(PID.TID 0000.0001) %MON g__extforcing_g_empmr_min    =   0.0000000000000E+00
(PID.TID 0000.0001) %MON g__extforcing_g_empmr_mean   =   0.0000000000000E+00
(PID.TID 0000.0001) %MON g__extforcing_g_empmr_sd     =   0.0000000000000E+00
(PID.TID 0000.0001) %MON g__extforcing_g_empmr_del2   =   0.0000000000000E+00
(PID.TID 0000.0001) %MON g__extforcing_g_fu_max       =   0.0000000000000E+00
(PID.TID 0000.0001) %MON g__extforcing_g_fu_min       =   0.0000000000000E+00
(PID.TID 0000.0001) %MON g__extforcing_g_fu_mean      =   0.0000000000000E+00
(PID.TID 0000.0001) %MON g__extforcing_g_fu_sd        =   0.0000000000000E+00
(PID.TID 0000.0001) %MON g__extforcing_g_fu_del2      =   0.0000000000000E+00
(PID.TID 0000.0001) %MON g__extforcing_g_fv_max       =   0.0000000000000E+00
(PID.TID 0000.0001) %MON g__extforcing_g_fv_min       =   0.0000000000000E+00
(PID.TID 0000.0001) %MON g__extforcing_g_fv_mean      =   0.0000000000000E+00
(PID.TID 0000.0001) %MON g__extforcing_g_fv_sd        =   0.0000000000000E+00
(PID.TID 0000.0001) %MON g__extforcing_g_fv_del2      =   0.0000000000000E+00
(PID.TID 0000.0001) %MON g__g_vcfl_g_uvel_max         =   0.0000000000000E+00
(PID.TID 0000.0001) %MON g__g_vcfl_g_vvel_max         =   0.0000000000000E+00
(PID.TID 0000.0001) %MON g__g_vcfl_g_wvel_max         =   0.0000000000000E+00
(PID.TID 0000.0001) %MON g__g_vcfl_g_W_hf_max         =   0.0000000000000E+00
(PID.TID 0000.0001) // =======================================================
(PID.TID 0000.0001) // End MONITOR dynamic field statistics
(PID.TID 0000.0001) // =======================================================
 cg2d: Sum(rhs),rhsMax =   0.00000000000000E+00  0.00000000000000E+00
 cg2d: Sum(rhs),rhsMax =   3.63800656266733E-12  8.49105103448681E+00
(PID.TID 0000.0001) // =======================================================
(PID.TID 0000.0001) // Begin MONITOR dynamic field statistics
(PID.TID 0000.0001) // =======================================================
(PID.TID 0000.0001) %MON g__time_tsnumber             =                    74
(PID.TID 0000.0001) %MON g__time_secondsf             =   3.1968000000000E+06
(PID.TID 0000.0001) %MON g__dynstat_g_eta_max         =   0.0000000000000E+00
(PID.TID 0000.0001) %MON g__dynstat_g_eta_min         =   0.0000000000000E+00
(PID.TID 0000.0001) %MON g__dynstat_g_eta_mean        =   0.0000000000000E+00
(PID.TID 0000.0001) %MON g__dynstat_g_eta_sd          =   0.0000000000000E+00
(PID.TID 0000.0001) %MON g__dynstat_g_eta_del2        =   0.0000000000000E+00
(PID.TID 0000.0001) %MON g__dynstat_g_uvel_max        =   0.0000000000000E+00
(PID.TID 0000.0001) %MON g__dynstat_g_uvel_min        =   0.0000000000000E+00
(PID.TID 0000.0001) %MON g__dynstat_g_uvel_mean       =   0.0000000000000E+00
(PID.TID 0000.0001) %MON g__dynstat_g_uvel_sd         =   0.0000000000000E+00
(PID.TID 0000.0001) %MON g__dynstat_g_uvel_del2       =   0.0000000000000E+00
(PID.TID 0000.0001) %MON g__dynstat_g_vvel_max        =   0.0000000000000E+00
(PID.TID 0000.0001) %MON g__dynstat_g_vvel_min        =   0.0000000000000E+00
(PID.TID 0000.0001) %MON g__dynstat_g_vvel_mean       =   0.0000000000000E+00
(PID.TID 0000.0001) %MON g__dynstat_g_vvel_sd         =   0.0000000000000E+00
(PID.TID 0000.0001) %MON g__dynstat_g_vvel_del2       =   0.0000000000000E+00
(PID.TID 0000.0001) %MON g__dynstat_g_wvel_max        =   0.0000000000000E+00
(PID.TID 0000.0001) %MON g__dynstat_g_wvel_min        =   0.0000000000000E+00
(PID.TID 0000.0001) %MON g__dynstat_g_wvel_mean       =   0.0000000000000E+00
(PID.TID 0000.0001) %MON g__dynstat_g_wvel_sd         =   0.0000000000000E+00
(PID.TID 0000.0001) %MON g__dynstat_g_wvel_del2       =   0.0000000000000E+00
(PID.TID 0000.0001) %MON g__dynstat_g_theta_max       =   0.0000000000000E+00
(PID.TID 0000.0001) %MON g__dynstat_g_theta_min       =   0.0000000000000E+00
(PID.TID 0000.0001) %MON g__dynstat_g_theta_mean      =   0.0000000000000E+00
(PID.TID 0000.0001) %MON g__dynstat_g_theta_sd        =   0.0000000000000E+00
(PID.TID 0000.0001) %MON g__dynstat_g_theta_del2      =   0.0000000000000E+00
(PID.TID 0000.0001) %MON g__dynstat_g_salt_max        =   0.0000000000000E+00
(PID.TID 0000.0001) %MON g__dynstat_g_salt_min        =   0.0000000000000E+00
(PID.TID 0000.0001) %MON g__dynstat_g_salt_mean       =   0.0000000000000E+00
(PID.TID 0000.0001) %MON g__dynstat_g_salt_sd         =   0.0000000000000E+00
(PID.TID 0000.0001) %MON g__dynstat_g_salt_del2       =   0.0000000000000E+00
(PID.TID 0000.0001) %MON g__dynstat_g_sst_max         =   0.0000000000000E+00
(PID.TID 0000.0001) %MON g__dynstat_g_sst_min         =   0.0000000000000E+00
(PID.TID 0000.0001) %MON g__dynstat_g_sst_mean        =   0.0000000000000E+00
(PID.TID 0000.0001) %MON g__dynstat_g_sst_sd          =   0.0000000000000E+00
(PID.TID 0000.0001) %MON g__dynstat_g_sst_del2        =   0.0000000000000E+00
(PID.TID 0000.0001) %MON g__dynstat_g_sss_max         =   0.0000000000000E+00
(PID.TID 0000.0001) %MON g__dynstat_g_sss_min         =   0.0000000000000E+00
(PID.TID 0000.0001) %MON g__dynstat_g_sss_mean        =   0.0000000000000E+00
(PID.TID 0000.0001) %MON g__dynstat_g_sss_sd          =   0.0000000000000E+00
(PID.TID 0000.0001) %MON g__dynstat_g_sss_del2        =   0.0000000000000E+00
(PID.TID 0000.0001) %MON g__extforcing_g_qnet_max     =   0.0000000000000E+00
(PID.TID 0000.0001) %MON g__extforcing_g_qnet_min     =   0.0000000000000E+00
(PID.TID 0000.0001) %MON g__extforcing_g_qnet_mean    =   0.0000000000000E+00
(PID.TID 0000.0001) %MON g__extforcing_g_qnet_sd      =   0.0000000000000E+00
(PID.TID 0000.0001) %MON g__extforcing_g_qnet_del2    =   0.0000000000000E+00
(PID.TID 0000.0001) %MON g__extforcing_g_empmr_max    =   0.0000000000000E+00
(PID.TID 0000.0001) %MON g__extforcing_g_empmr_min    =   0.0000000000000E+00
(PID.TID 0000.0001) %MON g__extforcing_g_empmr_mean   =   0.0000000000000E+00
(PID.TID 0000.0001) %MON g__extforcing_g_empmr_sd     =   0.0000000000000E+00
(PID.TID 0000.0001) %MON g__extforcing_g_empmr_del2   =   0.0000000000000E+00
(PID.TID 0000.0001) %MON g__extforcing_g_fu_max       =   0.0000000000000E+00
(PID.TID 0000.0001) %MON g__extforcing_g_fu_min       =   0.0000000000000E+00
(PID.TID 0000.0001) %MON g__extforcing_g_fu_mean      =   0.0000000000000E+00
(PID.TID 0000.0001) %MON g__extforcing_g_fu_sd        =   0.0000000000000E+00
(PID.TID 0000.0001) %MON g__extforcing_g_fu_del2      =   0.0000000000000E+00
(PID.TID 0000.0001) %MON g__extforcing_g_fv_max       =   0.0000000000000E+00
(PID.TID 0000.0001) %MON g__extforcing_g_fv_min       =   0.0000000000000E+00
(PID.TID 0000.0001) %MON g__extforcing_g_fv_mean      =   0.0000000000000E+00
(PID.TID 0000.0001) %MON g__extforcing_g_fv_sd        =   0.0000000000000E+00
(PID.TID 0000.0001) %MON g__extforcing_g_fv_del2      =   0.0000000000000E+00
(PID.TID 0000.0001) %MON g__g_vcfl_g_uvel_max         =   0.0000000000000E+00
(PID.TID 0000.0001) %MON g__g_vcfl_g_vvel_max         =   0.0000000000000E+00
(PID.TID 0000.0001) %MON g__g_vcfl_g_wvel_max         =   0.0000000000000E+00
(PID.TID 0000.0001) %MON g__g_vcfl_g_W_hf_max         =   0.0000000000000E+00
(PID.TID 0000.0001) // =======================================================
(PID.TID 0000.0001) // End MONITOR dynamic field statistics
(PID.TID 0000.0001) // =======================================================
 cg2d: Sum(rhs),rhsMax =   0.00000000000000E+00  0.00000000000000E+00
 cg2d: Sum(rhs),rhsMax =   2.59998272911233E-12  8.90375443856863E+00
(PID.TID 0000.0001) // =======================================================
(PID.TID 0000.0001) // Begin MONITOR dynamic field statistics
(PID.TID 0000.0001) // =======================================================
(PID.TID 0000.0001) %MON g__time_tsnumber             =                    75
(PID.TID 0000.0001) %MON g__time_secondsf             =   3.2400000000000E+06
(PID.TID 0000.0001) %MON g__dynstat_g_eta_max         =   0.0000000000000E+00
(PID.TID 0000.0001) %MON g__dynstat_g_eta_min         =   0.0000000000000E+00
(PID.TID 0000.0001) %MON g__dynstat_g_eta_mean        =   0.0000000000000E+00
(PID.TID 0000.0001) %MON g__dynstat_g_eta_sd          =   0.0000000000000E+00
(PID.TID 0000.0001) %MON g__dynstat_g_eta_del2        =   0.0000000000000E+00
(PID.TID 0000.0001) %MON g__dynstat_g_uvel_max        =   0.0000000000000E+00
(PID.TID 0000.0001) %MON g__dynstat_g_uvel_min        =   0.0000000000000E+00
(PID.TID 0000.0001) %MON g__dynstat_g_uvel_mean       =   0.0000000000000E+00
(PID.TID 0000.0001) %MON g__dynstat_g_uvel_sd         =   0.0000000000000E+00
(PID.TID 0000.0001) %MON g__dynstat_g_uvel_del2       =   0.0000000000000E+00
(PID.TID 0000.0001) %MON g__dynstat_g_vvel_max        =   0.0000000000000E+00
(PID.TID 0000.0001) %MON g__dynstat_g_vvel_min        =   0.0000000000000E+00
(PID.TID 0000.0001) %MON g__dynstat_g_vvel_mean       =   0.0000000000000E+00
(PID.TID 0000.0001) %MON g__dynstat_g_vvel_sd         =   0.0000000000000E+00
(PID.TID 0000.0001) %MON g__dynstat_g_vvel_del2       =   0.0000000000000E+00
(PID.TID 0000.0001) %MON g__dynstat_g_wvel_max        =   0.0000000000000E+00
(PID.TID 0000.0001) %MON g__dynstat_g_wvel_min        =   0.0000000000000E+00
(PID.TID 0000.0001) %MON g__dynstat_g_wvel_mean       =   0.0000000000000E+00
(PID.TID 0000.0001) %MON g__dynstat_g_wvel_sd         =   0.0000000000000E+00
(PID.TID 0000.0001) %MON g__dynstat_g_wvel_del2       =   0.0000000000000E+00
(PID.TID 0000.0001) %MON g__dynstat_g_theta_max       =   0.0000000000000E+00
(PID.TID 0000.0001) %MON g__dynstat_g_theta_min       =   0.0000000000000E+00
(PID.TID 0000.0001) %MON g__dynstat_g_theta_mean      =   0.0000000000000E+00
(PID.TID 0000.0001) %MON g__dynstat_g_theta_sd        =   0.0000000000000E+00
(PID.TID 0000.0001) %MON g__dynstat_g_theta_del2      =   0.0000000000000E+00
(PID.TID 0000.0001) %MON g__dynstat_g_salt_max        =   0.0000000000000E+00
(PID.TID 0000.0001) %MON g__dynstat_g_salt_min        =   0.0000000000000E+00
(PID.TID 0000.0001) %MON g__dynstat_g_salt_mean       =   0.0000000000000E+00
(PID.TID 0000.0001) %MON g__dynstat_g_salt_sd         =   0.0000000000000E+00
(PID.TID 0000.0001) %MON g__dynstat_g_salt_del2       =   0.0000000000000E+00
(PID.TID 0000.0001) %MON g__dynstat_g_sst_max         =   0.0000000000000E+00
(PID.TID 0000.0001) %MON g__dynstat_g_sst_min         =   0.0000000000000E+00
(PID.TID 0000.0001) %MON g__dynstat_g_sst_mean        =   0.0000000000000E+00
(PID.TID 0000.0001) %MON g__dynstat_g_sst_sd          =   0.0000000000000E+00
(PID.TID 0000.0001) %MON g__dynstat_g_sst_del2        =   0.0000000000000E+00
(PID.TID 0000.0001) %MON g__dynstat_g_sss_max         =   0.0000000000000E+00
(PID.TID 0000.0001) %MON g__dynstat_g_sss_min         =   0.0000000000000E+00
(PID.TID 0000.0001) %MON g__dynstat_g_sss_mean        =   0.0000000000000E+00
(PID.TID 0000.0001) %MON g__dynstat_g_sss_sd          =   0.0000000000000E+00
(PID.TID 0000.0001) %MON g__dynstat_g_sss_del2        =   0.0000000000000E+00
(PID.TID 0000.0001) %MON g__extforcing_g_qnet_max     =   0.0000000000000E+00
(PID.TID 0000.0001) %MON g__extforcing_g_qnet_min     =   0.0000000000000E+00
(PID.TID 0000.0001) %MON g__extforcing_g_qnet_mean    =   0.0000000000000E+00
(PID.TID 0000.0001) %MON g__extforcing_g_qnet_sd      =   0.0000000000000E+00
(PID.TID 0000.0001) %MON g__extforcing_g_qnet_del2    =   0.0000000000000E+00
(PID.TID 0000.0001) %MON g__extforcing_g_empmr_max    =   0.0000000000000E+00
(PID.TID 0000.0001) %MON g__extforcing_g_empmr_min    =   0.0000000000000E+00
(PID.TID 0000.0001) %MON g__extforcing_g_empmr_mean   =   0.0000000000000E+00
(PID.TID 0000.0001) %MON g__extforcing_g_empmr_sd     =   0.0000000000000E+00
(PID.TID 0000.0001) %MON g__extforcing_g_empmr_del2   =   0.0000000000000E+00
(PID.TID 0000.0001) %MON g__extforcing_g_fu_max       =   0.0000000000000E+00
(PID.TID 0000.0001) %MON g__extforcing_g_fu_min       =   0.0000000000000E+00
(PID.TID 0000.0001) %MON g__extforcing_g_fu_mean      =   0.0000000000000E+00
(PID.TID 0000.0001) %MON g__extforcing_g_fu_sd        =   0.0000000000000E+00
(PID.TID 0000.0001) %MON g__extforcing_g_fu_del2      =   0.0000000000000E+00
(PID.TID 0000.0001) %MON g__extforcing_g_fv_max       =   0.0000000000000E+00
(PID.TID 0000.0001) %MON g__extforcing_g_fv_min       =   0.0000000000000E+00
(PID.TID 0000.0001) %MON g__extforcing_g_fv_mean      =   0.0000000000000E+00
(PID.TID 0000.0001) %MON g__extforcing_g_fv_sd        =   0.0000000000000E+00
(PID.TID 0000.0001) %MON g__extforcing_g_fv_del2      =   0.0000000000000E+00
(PID.TID 0000.0001) %MON g__g_vcfl_g_uvel_max         =   0.0000000000000E+00
(PID.TID 0000.0001) %MON g__g_vcfl_g_vvel_max         =   0.0000000000000E+00
(PID.TID 0000.0001) %MON g__g_vcfl_g_wvel_max         =   0.0000000000000E+00
(PID.TID 0000.0001) %MON g__g_vcfl_g_W_hf_max         =   0.0000000000000E+00
(PID.TID 0000.0001) // =======================================================
(PID.TID 0000.0001) // End MONITOR dynamic field statistics
(PID.TID 0000.0001) // =======================================================
 cg2d: Sum(rhs),rhsMax =   0.00000000000000E+00  0.00000000000000E+00
 cg2d: Sum(rhs),rhsMax =   2.51632048531292E-12  9.21995752446139E+00
(PID.TID 0000.0001) // =======================================================
(PID.TID 0000.0001) // Begin MONITOR dynamic field statistics
(PID.TID 0000.0001) // =======================================================
(PID.TID 0000.0001) %MON g__time_tsnumber             =                    76
(PID.TID 0000.0001) %MON g__time_secondsf             =   3.2832000000000E+06
(PID.TID 0000.0001) %MON g__dynstat_g_eta_max         =   0.0000000000000E+00
(PID.TID 0000.0001) %MON g__dynstat_g_eta_min         =   0.0000000000000E+00
(PID.TID 0000.0001) %MON g__dynstat_g_eta_mean        =   0.0000000000000E+00
(PID.TID 0000.0001) %MON g__dynstat_g_eta_sd          =   0.0000000000000E+00
(PID.TID 0000.0001) %MON g__dynstat_g_eta_del2        =   0.0000000000000E+00
(PID.TID 0000.0001) %MON g__dynstat_g_uvel_max        =   0.0000000000000E+00
(PID.TID 0000.0001) %MON g__dynstat_g_uvel_min        =   0.0000000000000E+00
(PID.TID 0000.0001) %MON g__dynstat_g_uvel_mean       =   0.0000000000000E+00
(PID.TID 0000.0001) %MON g__dynstat_g_uvel_sd         =   0.0000000000000E+00
(PID.TID 0000.0001) %MON g__dynstat_g_uvel_del2       =   0.0000000000000E+00
(PID.TID 0000.0001) %MON g__dynstat_g_vvel_max        =   0.0000000000000E+00
(PID.TID 0000.0001) %MON g__dynstat_g_vvel_min        =   0.0000000000000E+00
(PID.TID 0000.0001) %MON g__dynstat_g_vvel_mean       =   0.0000000000000E+00
(PID.TID 0000.0001) %MON g__dynstat_g_vvel_sd         =   0.0000000000000E+00
(PID.TID 0000.0001) %MON g__dynstat_g_vvel_del2       =   0.0000000000000E+00
(PID.TID 0000.0001) %MON g__dynstat_g_wvel_max        =   0.0000000000000E+00
(PID.TID 0000.0001) %MON g__dynstat_g_wvel_min        =   0.0000000000000E+00
(PID.TID 0000.0001) %MON g__dynstat_g_wvel_mean       =   0.0000000000000E+00
(PID.TID 0000.0001) %MON g__dynstat_g_wvel_sd         =   0.0000000000000E+00
(PID.TID 0000.0001) %MON g__dynstat_g_wvel_del2       =   0.0000000000000E+00
(PID.TID 0000.0001) %MON g__dynstat_g_theta_max       =   0.0000000000000E+00
(PID.TID 0000.0001) %MON g__dynstat_g_theta_min       =   0.0000000000000E+00
(PID.TID 0000.0001) %MON g__dynstat_g_theta_mean      =   0.0000000000000E+00
(PID.TID 0000.0001) %MON g__dynstat_g_theta_sd        =   0.0000000000000E+00
(PID.TID 0000.0001) %MON g__dynstat_g_theta_del2      =   0.0000000000000E+00
(PID.TID 0000.0001) %MON g__dynstat_g_salt_max        =   0.0000000000000E+00
(PID.TID 0000.0001) %MON g__dynstat_g_salt_min        =   0.0000000000000E+00
(PID.TID 0000.0001) %MON g__dynstat_g_salt_mean       =   0.0000000000000E+00
(PID.TID 0000.0001) %MON g__dynstat_g_salt_sd         =   0.0000000000000E+00
(PID.TID 0000.0001) %MON g__dynstat_g_salt_del2       =   0.0000000000000E+00
(PID.TID 0000.0001) %MON g__dynstat_g_sst_max         =   0.0000000000000E+00
(PID.TID 0000.0001) %MON g__dynstat_g_sst_min         =   0.0000000000000E+00
(PID.TID 0000.0001) %MON g__dynstat_g_sst_mean        =   0.0000000000000E+00
(PID.TID 0000.0001) %MON g__dynstat_g_sst_sd          =   0.0000000000000E+00
(PID.TID 0000.0001) %MON g__dynstat_g_sst_del2        =   0.0000000000000E+00
(PID.TID 0000.0001) %MON g__dynstat_g_sss_max         =   0.0000000000000E+00
(PID.TID 0000.0001) %MON g__dynstat_g_sss_min         =   0.0000000000000E+00
(PID.TID 0000.0001) %MON g__dynstat_g_sss_mean        =   0.0000000000000E+00
(PID.TID 0000.0001) %MON g__dynstat_g_sss_sd          =   0.0000000000000E+00
(PID.TID 0000.0001) %MON g__dynstat_g_sss_del2        =   0.0000000000000E+00
(PID.TID 0000.0001) %MON g__extforcing_g_qnet_max     =   0.0000000000000E+00
(PID.TID 0000.0001) %MON g__extforcing_g_qnet_min     =   0.0000000000000E+00
(PID.TID 0000.0001) %MON g__extforcing_g_qnet_mean    =   0.0000000000000E+00
(PID.TID 0000.0001) %MON g__extforcing_g_qnet_sd      =   0.0000000000000E+00
(PID.TID 0000.0001) %MON g__extforcing_g_qnet_del2    =   0.0000000000000E+00
(PID.TID 0000.0001) %MON g__extforcing_g_empmr_max    =   0.0000000000000E+00
(PID.TID 0000.0001) %MON g__extforcing_g_empmr_min    =   0.0000000000000E+00
(PID.TID 0000.0001) %MON g__extforcing_g_empmr_mean   =   0.0000000000000E+00
(PID.TID 0000.0001) %MON g__extforcing_g_empmr_sd     =   0.0000000000000E+00
(PID.TID 0000.0001) %MON g__extforcing_g_empmr_del2   =   0.0000000000000E+00
(PID.TID 0000.0001) %MON g__extforcing_g_fu_max       =   0.0000000000000E+00
(PID.TID 0000.0001) %MON g__extforcing_g_fu_min       =   0.0000000000000E+00
(PID.TID 0000.0001) %MON g__extforcing_g_fu_mean      =   0.0000000000000E+00
(PID.TID 0000.0001) %MON g__extforcing_g_fu_sd        =   0.0000000000000E+00
(PID.TID 0000.0001) %MON g__extforcing_g_fu_del2      =   0.0000000000000E+00
(PID.TID 0000.0001) %MON g__extforcing_g_fv_max       =   0.0000000000000E+00
(PID.TID 0000.0001) %MON g__extforcing_g_fv_min       =   0.0000000000000E+00
(PID.TID 0000.0001) %MON g__extforcing_g_fv_mean      =   0.0000000000000E+00
(PID.TID 0000.0001) %MON g__extforcing_g_fv_sd        =   0.0000000000000E+00
(PID.TID 0000.0001) %MON g__extforcing_g_fv_del2      =   0.0000000000000E+00
(PID.TID 0000.0001) %MON g__g_vcfl_g_uvel_max         =   0.0000000000000E+00
(PID.TID 0000.0001) %MON g__g_vcfl_g_vvel_max         =   0.0000000000000E+00
(PID.TID 0000.0001) %MON g__g_vcfl_g_wvel_max         =   0.0000000000000E+00
(PID.TID 0000.0001) %MON g__g_vcfl_g_W_hf_max         =   0.0000000000000E+00
(PID.TID 0000.0001) // =======================================================
(PID.TID 0000.0001) // End MONITOR dynamic field statistics
(PID.TID 0000.0001) // =======================================================
 cg2d: Sum(rhs),rhsMax =   0.00000000000000E+00  0.00000000000000E+00
 cg2d: Sum(rhs),rhsMax =   2.81209777686087E-12  9.43408891658781E+00
(PID.TID 0000.0001) // =======================================================
(PID.TID 0000.0001) // Begin MONITOR dynamic field statistics
(PID.TID 0000.0001) // =======================================================
(PID.TID 0000.0001) %MON g__time_tsnumber             =                    77
(PID.TID 0000.0001) %MON g__time_secondsf             =   3.3264000000000E+06
(PID.TID 0000.0001) %MON g__dynstat_g_eta_max         =   0.0000000000000E+00
(PID.TID 0000.0001) %MON g__dynstat_g_eta_min         =   0.0000000000000E+00
(PID.TID 0000.0001) %MON g__dynstat_g_eta_mean        =   0.0000000000000E+00
(PID.TID 0000.0001) %MON g__dynstat_g_eta_sd          =   0.0000000000000E+00
(PID.TID 0000.0001) %MON g__dynstat_g_eta_del2        =   0.0000000000000E+00
(PID.TID 0000.0001) %MON g__dynstat_g_uvel_max        =   0.0000000000000E+00
(PID.TID 0000.0001) %MON g__dynstat_g_uvel_min        =   0.0000000000000E+00
(PID.TID 0000.0001) %MON g__dynstat_g_uvel_mean       =   0.0000000000000E+00
(PID.TID 0000.0001) %MON g__dynstat_g_uvel_sd         =   0.0000000000000E+00
(PID.TID 0000.0001) %MON g__dynstat_g_uvel_del2       =   0.0000000000000E+00
(PID.TID 0000.0001) %MON g__dynstat_g_vvel_max        =   0.0000000000000E+00
(PID.TID 0000.0001) %MON g__dynstat_g_vvel_min        =   0.0000000000000E+00
(PID.TID 0000.0001) %MON g__dynstat_g_vvel_mean       =   0.0000000000000E+00
(PID.TID 0000.0001) %MON g__dynstat_g_vvel_sd         =   0.0000000000000E+00
(PID.TID 0000.0001) %MON g__dynstat_g_vvel_del2       =   0.0000000000000E+00
(PID.TID 0000.0001) %MON g__dynstat_g_wvel_max        =   0.0000000000000E+00
(PID.TID 0000.0001) %MON g__dynstat_g_wvel_min        =   0.0000000000000E+00
(PID.TID 0000.0001) %MON g__dynstat_g_wvel_mean       =   0.0000000000000E+00
(PID.TID 0000.0001) %MON g__dynstat_g_wvel_sd         =   0.0000000000000E+00
(PID.TID 0000.0001) %MON g__dynstat_g_wvel_del2       =   0.0000000000000E+00
(PID.TID 0000.0001) %MON g__dynstat_g_theta_max       =   0.0000000000000E+00
(PID.TID 0000.0001) %MON g__dynstat_g_theta_min       =   0.0000000000000E+00
(PID.TID 0000.0001) %MON g__dynstat_g_theta_mean      =   0.0000000000000E+00
(PID.TID 0000.0001) %MON g__dynstat_g_theta_sd        =   0.0000000000000E+00
(PID.TID 0000.0001) %MON g__dynstat_g_theta_del2      =   0.0000000000000E+00
(PID.TID 0000.0001) %MON g__dynstat_g_salt_max        =   0.0000000000000E+00
(PID.TID 0000.0001) %MON g__dynstat_g_salt_min        =   0.0000000000000E+00
(PID.TID 0000.0001) %MON g__dynstat_g_salt_mean       =   0.0000000000000E+00
(PID.TID 0000.0001) %MON g__dynstat_g_salt_sd         =   0.0000000000000E+00
(PID.TID 0000.0001) %MON g__dynstat_g_salt_del2       =   0.0000000000000E+00
(PID.TID 0000.0001) %MON g__dynstat_g_sst_max         =   0.0000000000000E+00
(PID.TID 0000.0001) %MON g__dynstat_g_sst_min         =   0.0000000000000E+00
(PID.TID 0000.0001) %MON g__dynstat_g_sst_mean        =   0.0000000000000E+00
(PID.TID 0000.0001) %MON g__dynstat_g_sst_sd          =   0.0000000000000E+00
(PID.TID 0000.0001) %MON g__dynstat_g_sst_del2        =   0.0000000000000E+00
(PID.TID 0000.0001) %MON g__dynstat_g_sss_max         =   0.0000000000000E+00
(PID.TID 0000.0001) %MON g__dynstat_g_sss_min         =   0.0000000000000E+00
(PID.TID 0000.0001) %MON g__dynstat_g_sss_mean        =   0.0000000000000E+00
(PID.TID 0000.0001) %MON g__dynstat_g_sss_sd          =   0.0000000000000E+00
(PID.TID 0000.0001) %MON g__dynstat_g_sss_del2        =   0.0000000000000E+00
(PID.TID 0000.0001) %MON g__extforcing_g_qnet_max     =   0.0000000000000E+00
(PID.TID 0000.0001) %MON g__extforcing_g_qnet_min     =   0.0000000000000E+00
(PID.TID 0000.0001) %MON g__extforcing_g_qnet_mean    =   0.0000000000000E+00
(PID.TID 0000.0001) %MON g__extforcing_g_qnet_sd      =   0.0000000000000E+00
(PID.TID 0000.0001) %MON g__extforcing_g_qnet_del2    =   0.0000000000000E+00
(PID.TID 0000.0001) %MON g__extforcing_g_empmr_max    =   0.0000000000000E+00
(PID.TID 0000.0001) %MON g__extforcing_g_empmr_min    =   0.0000000000000E+00
(PID.TID 0000.0001) %MON g__extforcing_g_empmr_mean   =   0.0000000000000E+00
(PID.TID 0000.0001) %MON g__extforcing_g_empmr_sd     =   0.0000000000000E+00
(PID.TID 0000.0001) %MON g__extforcing_g_empmr_del2   =   0.0000000000000E+00
(PID.TID 0000.0001) %MON g__extforcing_g_fu_max       =   0.0000000000000E+00
(PID.TID 0000.0001) %MON g__extforcing_g_fu_min       =   0.0000000000000E+00
(PID.TID 0000.0001) %MON g__extforcing_g_fu_mean      =   0.0000000000000E+00
(PID.TID 0000.0001) %MON g__extforcing_g_fu_sd        =   0.0000000000000E+00
(PID.TID 0000.0001) %MON g__extforcing_g_fu_del2      =   0.0000000000000E+00
(PID.TID 0000.0001) %MON g__extforcing_g_fv_max       =   0.0000000000000E+00
(PID.TID 0000.0001) %MON g__extforcing_g_fv_min       =   0.0000000000000E+00
(PID.TID 0000.0001) %MON g__extforcing_g_fv_mean      =   0.0000000000000E+00
(PID.TID 0000.0001) %MON g__extforcing_g_fv_sd        =   0.0000000000000E+00
(PID.TID 0000.0001) %MON g__extforcing_g_fv_del2      =   0.0000000000000E+00
(PID.TID 0000.0001) %MON g__g_vcfl_g_uvel_max         =   0.0000000000000E+00
(PID.TID 0000.0001) %MON g__g_vcfl_g_vvel_max         =   0.0000000000000E+00
(PID.TID 0000.0001) %MON g__g_vcfl_g_wvel_max         =   0.0000000000000E+00
(PID.TID 0000.0001) %MON g__g_vcfl_g_W_hf_max         =   0.0000000000000E+00
(PID.TID 0000.0001) // =======================================================
(PID.TID 0000.0001) // End MONITOR dynamic field statistics
(PID.TID 0000.0001) // =======================================================
 cg2d: Sum(rhs),rhsMax =   0.00000000000000E+00  0.00000000000000E+00
 cg2d: Sum(rhs),rhsMax =   1.78770193093314E-12  9.54305671450155E+00
(PID.TID 0000.0001) // =======================================================
(PID.TID 0000.0001) // Begin MONITOR dynamic field statistics
(PID.TID 0000.0001) // =======================================================
(PID.TID 0000.0001) %MON g__time_tsnumber             =                    78
(PID.TID 0000.0001) %MON g__time_secondsf             =   3.3696000000000E+06
(PID.TID 0000.0001) %MON g__dynstat_g_eta_max         =   0.0000000000000E+00
(PID.TID 0000.0001) %MON g__dynstat_g_eta_min         =   0.0000000000000E+00
(PID.TID 0000.0001) %MON g__dynstat_g_eta_mean        =   0.0000000000000E+00
(PID.TID 0000.0001) %MON g__dynstat_g_eta_sd          =   0.0000000000000E+00
(PID.TID 0000.0001) %MON g__dynstat_g_eta_del2        =   0.0000000000000E+00
(PID.TID 0000.0001) %MON g__dynstat_g_uvel_max        =   0.0000000000000E+00
(PID.TID 0000.0001) %MON g__dynstat_g_uvel_min        =   0.0000000000000E+00
(PID.TID 0000.0001) %MON g__dynstat_g_uvel_mean       =   0.0000000000000E+00
(PID.TID 0000.0001) %MON g__dynstat_g_uvel_sd         =   0.0000000000000E+00
(PID.TID 0000.0001) %MON g__dynstat_g_uvel_del2       =   0.0000000000000E+00
(PID.TID 0000.0001) %MON g__dynstat_g_vvel_max        =   0.0000000000000E+00
(PID.TID 0000.0001) %MON g__dynstat_g_vvel_min        =   0.0000000000000E+00
(PID.TID 0000.0001) %MON g__dynstat_g_vvel_mean       =   0.0000000000000E+00
(PID.TID 0000.0001) %MON g__dynstat_g_vvel_sd         =   0.0000000000000E+00
(PID.TID 0000.0001) %MON g__dynstat_g_vvel_del2       =   0.0000000000000E+00
(PID.TID 0000.0001) %MON g__dynstat_g_wvel_max        =   0.0000000000000E+00
(PID.TID 0000.0001) %MON g__dynstat_g_wvel_min        =   0.0000000000000E+00
(PID.TID 0000.0001) %MON g__dynstat_g_wvel_mean       =   0.0000000000000E+00
(PID.TID 0000.0001) %MON g__dynstat_g_wvel_sd         =   0.0000000000000E+00
(PID.TID 0000.0001) %MON g__dynstat_g_wvel_del2       =   0.0000000000000E+00
(PID.TID 0000.0001) %MON g__dynstat_g_theta_max       =   0.0000000000000E+00
(PID.TID 0000.0001) %MON g__dynstat_g_theta_min       =   0.0000000000000E+00
(PID.TID 0000.0001) %MON g__dynstat_g_theta_mean      =   0.0000000000000E+00
(PID.TID 0000.0001) %MON g__dynstat_g_theta_sd        =   0.0000000000000E+00
(PID.TID 0000.0001) %MON g__dynstat_g_theta_del2      =   0.0000000000000E+00
(PID.TID 0000.0001) %MON g__dynstat_g_salt_max        =   0.0000000000000E+00
(PID.TID 0000.0001) %MON g__dynstat_g_salt_min        =   0.0000000000000E+00
(PID.TID 0000.0001) %MON g__dynstat_g_salt_mean       =   0.0000000000000E+00
(PID.TID 0000.0001) %MON g__dynstat_g_salt_sd         =   0.0000000000000E+00
(PID.TID 0000.0001) %MON g__dynstat_g_salt_del2       =   0.0000000000000E+00
(PID.TID 0000.0001) %MON g__dynstat_g_sst_max         =   0.0000000000000E+00
(PID.TID 0000.0001) %MON g__dynstat_g_sst_min         =   0.0000000000000E+00
(PID.TID 0000.0001) %MON g__dynstat_g_sst_mean        =   0.0000000000000E+00
(PID.TID 0000.0001) %MON g__dynstat_g_sst_sd          =   0.0000000000000E+00
(PID.TID 0000.0001) %MON g__dynstat_g_sst_del2        =   0.0000000000000E+00
(PID.TID 0000.0001) %MON g__dynstat_g_sss_max         =   0.0000000000000E+00
(PID.TID 0000.0001) %MON g__dynstat_g_sss_min         =   0.0000000000000E+00
(PID.TID 0000.0001) %MON g__dynstat_g_sss_mean        =   0.0000000000000E+00
(PID.TID 0000.0001) %MON g__dynstat_g_sss_sd          =   0.0000000000000E+00
(PID.TID 0000.0001) %MON g__dynstat_g_sss_del2        =   0.0000000000000E+00
(PID.TID 0000.0001) %MON g__extforcing_g_qnet_max     =   0.0000000000000E+00
(PID.TID 0000.0001) %MON g__extforcing_g_qnet_min     =   0.0000000000000E+00
(PID.TID 0000.0001) %MON g__extforcing_g_qnet_mean    =   0.0000000000000E+00
(PID.TID 0000.0001) %MON g__extforcing_g_qnet_sd      =   0.0000000000000E+00
(PID.TID 0000.0001) %MON g__extforcing_g_qnet_del2    =   0.0000000000000E+00
(PID.TID 0000.0001) %MON g__extforcing_g_empmr_max    =   0.0000000000000E+00
(PID.TID 0000.0001) %MON g__extforcing_g_empmr_min    =   0.0000000000000E+00
(PID.TID 0000.0001) %MON g__extforcing_g_empmr_mean   =   0.0000000000000E+00
(PID.TID 0000.0001) %MON g__extforcing_g_empmr_sd     =   0.0000000000000E+00
(PID.TID 0000.0001) %MON g__extforcing_g_empmr_del2   =   0.0000000000000E+00
(PID.TID 0000.0001) %MON g__extforcing_g_fu_max       =   0.0000000000000E+00
(PID.TID 0000.0001) %MON g__extforcing_g_fu_min       =   0.0000000000000E+00
(PID.TID 0000.0001) %MON g__extforcing_g_fu_mean      =   0.0000000000000E+00
(PID.TID 0000.0001) %MON g__extforcing_g_fu_sd        =   0.0000000000000E+00
(PID.TID 0000.0001) %MON g__extforcing_g_fu_del2      =   0.0000000000000E+00
(PID.TID 0000.0001) %MON g__extforcing_g_fv_max       =   0.0000000000000E+00
(PID.TID 0000.0001) %MON g__extforcing_g_fv_min       =   0.0000000000000E+00
(PID.TID 0000.0001) %MON g__extforcing_g_fv_mean      =   0.0000000000000E+00
(PID.TID 0000.0001) %MON g__extforcing_g_fv_sd        =   0.0000000000000E+00
(PID.TID 0000.0001) %MON g__extforcing_g_fv_del2      =   0.0000000000000E+00
(PID.TID 0000.0001) %MON g__g_vcfl_g_uvel_max         =   0.0000000000000E+00
(PID.TID 0000.0001) %MON g__g_vcfl_g_vvel_max         =   0.0000000000000E+00
(PID.TID 0000.0001) %MON g__g_vcfl_g_wvel_max         =   0.0000000000000E+00
(PID.TID 0000.0001) %MON g__g_vcfl_g_W_hf_max         =   0.0000000000000E+00
(PID.TID 0000.0001) // =======================================================
(PID.TID 0000.0001) // End MONITOR dynamic field statistics
(PID.TID 0000.0001) // =======================================================
 cg2d: Sum(rhs),rhsMax =   0.00000000000000E+00  0.00000000000000E+00
 cg2d: Sum(rhs),rhsMax =   2.42859204968582E-12  9.54625980631859E+00
(PID.TID 0000.0001) // =======================================================
(PID.TID 0000.0001) // Begin MONITOR dynamic field statistics
(PID.TID 0000.0001) // =======================================================
(PID.TID 0000.0001) %MON g__time_tsnumber             =                    79
(PID.TID 0000.0001) %MON g__time_secondsf             =   3.4128000000000E+06
(PID.TID 0000.0001) %MON g__dynstat_g_eta_max         =   0.0000000000000E+00
(PID.TID 0000.0001) %MON g__dynstat_g_eta_min         =   0.0000000000000E+00
(PID.TID 0000.0001) %MON g__dynstat_g_eta_mean        =   0.0000000000000E+00
(PID.TID 0000.0001) %MON g__dynstat_g_eta_sd          =   0.0000000000000E+00
(PID.TID 0000.0001) %MON g__dynstat_g_eta_del2        =   0.0000000000000E+00
(PID.TID 0000.0001) %MON g__dynstat_g_uvel_max        =   0.0000000000000E+00
(PID.TID 0000.0001) %MON g__dynstat_g_uvel_min        =   0.0000000000000E+00
(PID.TID 0000.0001) %MON g__dynstat_g_uvel_mean       =   0.0000000000000E+00
(PID.TID 0000.0001) %MON g__dynstat_g_uvel_sd         =   0.0000000000000E+00
(PID.TID 0000.0001) %MON g__dynstat_g_uvel_del2       =   0.0000000000000E+00
(PID.TID 0000.0001) %MON g__dynstat_g_vvel_max        =   0.0000000000000E+00
(PID.TID 0000.0001) %MON g__dynstat_g_vvel_min        =   0.0000000000000E+00
(PID.TID 0000.0001) %MON g__dynstat_g_vvel_mean       =   0.0000000000000E+00
(PID.TID 0000.0001) %MON g__dynstat_g_vvel_sd         =   0.0000000000000E+00
(PID.TID 0000.0001) %MON g__dynstat_g_vvel_del2       =   0.0000000000000E+00
(PID.TID 0000.0001) %MON g__dynstat_g_wvel_max        =   0.0000000000000E+00
(PID.TID 0000.0001) %MON g__dynstat_g_wvel_min        =   0.0000000000000E+00
(PID.TID 0000.0001) %MON g__dynstat_g_wvel_mean       =   0.0000000000000E+00
(PID.TID 0000.0001) %MON g__dynstat_g_wvel_sd         =   0.0000000000000E+00
(PID.TID 0000.0001) %MON g__dynstat_g_wvel_del2       =   0.0000000000000E+00
(PID.TID 0000.0001) %MON g__dynstat_g_theta_max       =   0.0000000000000E+00
(PID.TID 0000.0001) %MON g__dynstat_g_theta_min       =   0.0000000000000E+00
(PID.TID 0000.0001) %MON g__dynstat_g_theta_mean      =   0.0000000000000E+00
(PID.TID 0000.0001) %MON g__dynstat_g_theta_sd        =   0.0000000000000E+00
(PID.TID 0000.0001) %MON g__dynstat_g_theta_del2      =   0.0000000000000E+00
(PID.TID 0000.0001) %MON g__dynstat_g_salt_max        =   0.0000000000000E+00
(PID.TID 0000.0001) %MON g__dynstat_g_salt_min        =   0.0000000000000E+00
(PID.TID 0000.0001) %MON g__dynstat_g_salt_mean       =   0.0000000000000E+00
(PID.TID 0000.0001) %MON g__dynstat_g_salt_sd         =   0.0000000000000E+00
(PID.TID 0000.0001) %MON g__dynstat_g_salt_del2       =   0.0000000000000E+00
(PID.TID 0000.0001) %MON g__dynstat_g_sst_max         =   0.0000000000000E+00
(PID.TID 0000.0001) %MON g__dynstat_g_sst_min         =   0.0000000000000E+00
(PID.TID 0000.0001) %MON g__dynstat_g_sst_mean        =   0.0000000000000E+00
(PID.TID 0000.0001) %MON g__dynstat_g_sst_sd          =   0.0000000000000E+00
(PID.TID 0000.0001) %MON g__dynstat_g_sst_del2        =   0.0000000000000E+00
(PID.TID 0000.0001) %MON g__dynstat_g_sss_max         =   0.0000000000000E+00
(PID.TID 0000.0001) %MON g__dynstat_g_sss_min         =   0.0000000000000E+00
(PID.TID 0000.0001) %MON g__dynstat_g_sss_mean        =   0.0000000000000E+00
(PID.TID 0000.0001) %MON g__dynstat_g_sss_sd          =   0.0000000000000E+00
(PID.TID 0000.0001) %MON g__dynstat_g_sss_del2        =   0.0000000000000E+00
(PID.TID 0000.0001) %MON g__extforcing_g_qnet_max     =   0.0000000000000E+00
(PID.TID 0000.0001) %MON g__extforcing_g_qnet_min     =   0.0000000000000E+00
(PID.TID 0000.0001) %MON g__extforcing_g_qnet_mean    =   0.0000000000000E+00
(PID.TID 0000.0001) %MON g__extforcing_g_qnet_sd      =   0.0000000000000E+00
(PID.TID 0000.0001) %MON g__extforcing_g_qnet_del2    =   0.0000000000000E+00
(PID.TID 0000.0001) %MON g__extforcing_g_empmr_max    =   0.0000000000000E+00
(PID.TID 0000.0001) %MON g__extforcing_g_empmr_min    =   0.0000000000000E+00
(PID.TID 0000.0001) %MON g__extforcing_g_empmr_mean   =   0.0000000000000E+00
(PID.TID 0000.0001) %MON g__extforcing_g_empmr_sd     =   0.0000000000000E+00
(PID.TID 0000.0001) %MON g__extforcing_g_empmr_del2   =   0.0000000000000E+00
(PID.TID 0000.0001) %MON g__extforcing_g_fu_max       =   0.0000000000000E+00
(PID.TID 0000.0001) %MON g__extforcing_g_fu_min       =   0.0000000000000E+00
(PID.TID 0000.0001) %MON g__extforcing_g_fu_mean      =   0.0000000000000E+00
(PID.TID 0000.0001) %MON g__extforcing_g_fu_sd        =   0.0000000000000E+00
(PID.TID 0000.0001) %MON g__extforcing_g_fu_del2      =   0.0000000000000E+00
(PID.TID 0000.0001) %MON g__extforcing_g_fv_max       =   0.0000000000000E+00
(PID.TID 0000.0001) %MON g__extforcing_g_fv_min       =   0.0000000000000E+00
(PID.TID 0000.0001) %MON g__extforcing_g_fv_mean      =   0.0000000000000E+00
(PID.TID 0000.0001) %MON g__extforcing_g_fv_sd        =   0.0000000000000E+00
(PID.TID 0000.0001) %MON g__extforcing_g_fv_del2      =   0.0000000000000E+00
(PID.TID 0000.0001) %MON g__g_vcfl_g_uvel_max         =   0.0000000000000E+00
(PID.TID 0000.0001) %MON g__g_vcfl_g_vvel_max         =   0.0000000000000E+00
(PID.TID 0000.0001) %MON g__g_vcfl_g_wvel_max         =   0.0000000000000E+00
(PID.TID 0000.0001) %MON g__g_vcfl_g_W_hf_max         =   0.0000000000000E+00
(PID.TID 0000.0001) // =======================================================
(PID.TID 0000.0001) // End MONITOR dynamic field statistics
(PID.TID 0000.0001) // =======================================================
 cg2d: Sum(rhs),rhsMax =   0.00000000000000E+00  0.00000000000000E+00
 cg2d: Sum(rhs),rhsMax =   2.16853618395518E-12  9.44553374716872E+00
(PID.TID 0000.0001) // =======================================================
(PID.TID 0000.0001) // Begin MONITOR dynamic field statistics
(PID.TID 0000.0001) // =======================================================
(PID.TID 0000.0001) %MON g__time_tsnumber             =                    80
(PID.TID 0000.0001) %MON g__time_secondsf             =   3.4560000000000E+06
(PID.TID 0000.0001) %MON g__dynstat_g_eta_max         =   0.0000000000000E+00
(PID.TID 0000.0001) %MON g__dynstat_g_eta_min         =   0.0000000000000E+00
(PID.TID 0000.0001) %MON g__dynstat_g_eta_mean        =   0.0000000000000E+00
(PID.TID 0000.0001) %MON g__dynstat_g_eta_sd          =   0.0000000000000E+00
(PID.TID 0000.0001) %MON g__dynstat_g_eta_del2        =   0.0000000000000E+00
(PID.TID 0000.0001) %MON g__dynstat_g_uvel_max        =   0.0000000000000E+00
(PID.TID 0000.0001) %MON g__dynstat_g_uvel_min        =   0.0000000000000E+00
(PID.TID 0000.0001) %MON g__dynstat_g_uvel_mean       =   0.0000000000000E+00
(PID.TID 0000.0001) %MON g__dynstat_g_uvel_sd         =   0.0000000000000E+00
(PID.TID 0000.0001) %MON g__dynstat_g_uvel_del2       =   0.0000000000000E+00
(PID.TID 0000.0001) %MON g__dynstat_g_vvel_max        =   0.0000000000000E+00
(PID.TID 0000.0001) %MON g__dynstat_g_vvel_min        =   0.0000000000000E+00
(PID.TID 0000.0001) %MON g__dynstat_g_vvel_mean       =   0.0000000000000E+00
(PID.TID 0000.0001) %MON g__dynstat_g_vvel_sd         =   0.0000000000000E+00
(PID.TID 0000.0001) %MON g__dynstat_g_vvel_del2       =   0.0000000000000E+00
(PID.TID 0000.0001) %MON g__dynstat_g_wvel_max        =   0.0000000000000E+00
(PID.TID 0000.0001) %MON g__dynstat_g_wvel_min        =   0.0000000000000E+00
(PID.TID 0000.0001) %MON g__dynstat_g_wvel_mean       =   0.0000000000000E+00
(PID.TID 0000.0001) %MON g__dynstat_g_wvel_sd         =   0.0000000000000E+00
(PID.TID 0000.0001) %MON g__dynstat_g_wvel_del2       =   0.0000000000000E+00
(PID.TID 0000.0001) %MON g__dynstat_g_theta_max       =   0.0000000000000E+00
(PID.TID 0000.0001) %MON g__dynstat_g_theta_min       =   0.0000000000000E+00
(PID.TID 0000.0001) %MON g__dynstat_g_theta_mean      =   0.0000000000000E+00
(PID.TID 0000.0001) %MON g__dynstat_g_theta_sd        =   0.0000000000000E+00
(PID.TID 0000.0001) %MON g__dynstat_g_theta_del2      =   0.0000000000000E+00
(PID.TID 0000.0001) %MON g__dynstat_g_salt_max        =   0.0000000000000E+00
(PID.TID 0000.0001) %MON g__dynstat_g_salt_min        =   0.0000000000000E+00
(PID.TID 0000.0001) %MON g__dynstat_g_salt_mean       =   0.0000000000000E+00
(PID.TID 0000.0001) %MON g__dynstat_g_salt_sd         =   0.0000000000000E+00
(PID.TID 0000.0001) %MON g__dynstat_g_salt_del2       =   0.0000000000000E+00
(PID.TID 0000.0001) %MON g__dynstat_g_sst_max         =   0.0000000000000E+00
(PID.TID 0000.0001) %MON g__dynstat_g_sst_min         =   0.0000000000000E+00
(PID.TID 0000.0001) %MON g__dynstat_g_sst_mean        =   0.0000000000000E+00
(PID.TID 0000.0001) %MON g__dynstat_g_sst_sd          =   0.0000000000000E+00
(PID.TID 0000.0001) %MON g__dynstat_g_sst_del2        =   0.0000000000000E+00
(PID.TID 0000.0001) %MON g__dynstat_g_sss_max         =   0.0000000000000E+00
(PID.TID 0000.0001) %MON g__dynstat_g_sss_min         =   0.0000000000000E+00
(PID.TID 0000.0001) %MON g__dynstat_g_sss_mean        =   0.0000000000000E+00
(PID.TID 0000.0001) %MON g__dynstat_g_sss_sd          =   0.0000000000000E+00
(PID.TID 0000.0001) %MON g__dynstat_g_sss_del2        =   0.0000000000000E+00
(PID.TID 0000.0001) %MON g__extforcing_g_qnet_max     =   0.0000000000000E+00
(PID.TID 0000.0001) %MON g__extforcing_g_qnet_min     =   0.0000000000000E+00
(PID.TID 0000.0001) %MON g__extforcing_g_qnet_mean    =   0.0000000000000E+00
(PID.TID 0000.0001) %MON g__extforcing_g_qnet_sd      =   0.0000000000000E+00
(PID.TID 0000.0001) %MON g__extforcing_g_qnet_del2    =   0.0000000000000E+00
(PID.TID 0000.0001) %MON g__extforcing_g_empmr_max    =   0.0000000000000E+00
(PID.TID 0000.0001) %MON g__extforcing_g_empmr_min    =   0.0000000000000E+00
(PID.TID 0000.0001) %MON g__extforcing_g_empmr_mean   =   0.0000000000000E+00
(PID.TID 0000.0001) %MON g__extforcing_g_empmr_sd     =   0.0000000000000E+00
(PID.TID 0000.0001) %MON g__extforcing_g_empmr_del2   =   0.0000000000000E+00
(PID.TID 0000.0001) %MON g__extforcing_g_fu_max       =   0.0000000000000E+00
(PID.TID 0000.0001) %MON g__extforcing_g_fu_min       =   0.0000000000000E+00
(PID.TID 0000.0001) %MON g__extforcing_g_fu_mean      =   0.0000000000000E+00
(PID.TID 0000.0001) %MON g__extforcing_g_fu_sd        =   0.0000000000000E+00
(PID.TID 0000.0001) %MON g__extforcing_g_fu_del2      =   0.0000000000000E+00
(PID.TID 0000.0001) %MON g__extforcing_g_fv_max       =   0.0000000000000E+00
(PID.TID 0000.0001) %MON g__extforcing_g_fv_min       =   0.0000000000000E+00
(PID.TID 0000.0001) %MON g__extforcing_g_fv_mean      =   0.0000000000000E+00
(PID.TID 0000.0001) %MON g__extforcing_g_fv_sd        =   0.0000000000000E+00
(PID.TID 0000.0001) %MON g__extforcing_g_fv_del2      =   0.0000000000000E+00
(PID.TID 0000.0001) %MON g__g_vcfl_g_uvel_max         =   0.0000000000000E+00
(PID.TID 0000.0001) %MON g__g_vcfl_g_vvel_max         =   0.0000000000000E+00
(PID.TID 0000.0001) %MON g__g_vcfl_g_wvel_max         =   0.0000000000000E+00
(PID.TID 0000.0001) %MON g__g_vcfl_g_W_hf_max         =   0.0000000000000E+00
(PID.TID 0000.0001) // =======================================================
(PID.TID 0000.0001) // End MONITOR dynamic field statistics
(PID.TID 0000.0001) // =======================================================
 myIter=  80
(PID.TID 0000.0001) // Model state written, timestep        80
(PID.TID 0000.0001) 
 cg2d: Sum(rhs),rhsMax =   0.00000000000000E+00  0.00000000000000E+00
 cg2d: Sum(rhs),rhsMax =   2.54526261178611E-12  9.24503765445443E+00
(PID.TID 0000.0001) // =======================================================
(PID.TID 0000.0001) // Begin MONITOR dynamic field statistics
(PID.TID 0000.0001) // =======================================================
(PID.TID 0000.0001) %MON g__time_tsnumber             =                    81
(PID.TID 0000.0001) %MON g__time_secondsf             =   3.4992000000000E+06
(PID.TID 0000.0001) %MON g__dynstat_g_eta_max         =   0.0000000000000E+00
(PID.TID 0000.0001) %MON g__dynstat_g_eta_min         =   0.0000000000000E+00
(PID.TID 0000.0001) %MON g__dynstat_g_eta_mean        =   0.0000000000000E+00
(PID.TID 0000.0001) %MON g__dynstat_g_eta_sd          =   0.0000000000000E+00
(PID.TID 0000.0001) %MON g__dynstat_g_eta_del2        =   0.0000000000000E+00
(PID.TID 0000.0001) %MON g__dynstat_g_uvel_max        =   0.0000000000000E+00
(PID.TID 0000.0001) %MON g__dynstat_g_uvel_min        =   0.0000000000000E+00
(PID.TID 0000.0001) %MON g__dynstat_g_uvel_mean       =   0.0000000000000E+00
(PID.TID 0000.0001) %MON g__dynstat_g_uvel_sd         =   0.0000000000000E+00
(PID.TID 0000.0001) %MON g__dynstat_g_uvel_del2       =   0.0000000000000E+00
(PID.TID 0000.0001) %MON g__dynstat_g_vvel_max        =   0.0000000000000E+00
(PID.TID 0000.0001) %MON g__dynstat_g_vvel_min        =   0.0000000000000E+00
(PID.TID 0000.0001) %MON g__dynstat_g_vvel_mean       =   0.0000000000000E+00
(PID.TID 0000.0001) %MON g__dynstat_g_vvel_sd         =   0.0000000000000E+00
(PID.TID 0000.0001) %MON g__dynstat_g_vvel_del2       =   0.0000000000000E+00
(PID.TID 0000.0001) %MON g__dynstat_g_wvel_max        =   0.0000000000000E+00
(PID.TID 0000.0001) %MON g__dynstat_g_wvel_min        =   0.0000000000000E+00
(PID.TID 0000.0001) %MON g__dynstat_g_wvel_mean       =   0.0000000000000E+00
(PID.TID 0000.0001) %MON g__dynstat_g_wvel_sd         =   0.0000000000000E+00
(PID.TID 0000.0001) %MON g__dynstat_g_wvel_del2       =   0.0000000000000E+00
(PID.TID 0000.0001) %MON g__dynstat_g_theta_max       =   0.0000000000000E+00
(PID.TID 0000.0001) %MON g__dynstat_g_theta_min       =   0.0000000000000E+00
(PID.TID 0000.0001) %MON g__dynstat_g_theta_mean      =   0.0000000000000E+00
(PID.TID 0000.0001) %MON g__dynstat_g_theta_sd        =   0.0000000000000E+00
(PID.TID 0000.0001) %MON g__dynstat_g_theta_del2      =   0.0000000000000E+00
(PID.TID 0000.0001) %MON g__dynstat_g_salt_max        =   0.0000000000000E+00
(PID.TID 0000.0001) %MON g__dynstat_g_salt_min        =   0.0000000000000E+00
(PID.TID 0000.0001) %MON g__dynstat_g_salt_mean       =   0.0000000000000E+00
(PID.TID 0000.0001) %MON g__dynstat_g_salt_sd         =   0.0000000000000E+00
(PID.TID 0000.0001) %MON g__dynstat_g_salt_del2       =   0.0000000000000E+00
(PID.TID 0000.0001) %MON g__dynstat_g_sst_max         =   0.0000000000000E+00
(PID.TID 0000.0001) %MON g__dynstat_g_sst_min         =   0.0000000000000E+00
(PID.TID 0000.0001) %MON g__dynstat_g_sst_mean        =   0.0000000000000E+00
(PID.TID 0000.0001) %MON g__dynstat_g_sst_sd          =   0.0000000000000E+00
(PID.TID 0000.0001) %MON g__dynstat_g_sst_del2        =   0.0000000000000E+00
(PID.TID 0000.0001) %MON g__dynstat_g_sss_max         =   0.0000000000000E+00
(PID.TID 0000.0001) %MON g__dynstat_g_sss_min         =   0.0000000000000E+00
(PID.TID 0000.0001) %MON g__dynstat_g_sss_mean        =   0.0000000000000E+00
(PID.TID 0000.0001) %MON g__dynstat_g_sss_sd          =   0.0000000000000E+00
(PID.TID 0000.0001) %MON g__dynstat_g_sss_del2        =   0.0000000000000E+00
(PID.TID 0000.0001) %MON g__extforcing_g_qnet_max     =   0.0000000000000E+00
(PID.TID 0000.0001) %MON g__extforcing_g_qnet_min     =   0.0000000000000E+00
(PID.TID 0000.0001) %MON g__extforcing_g_qnet_mean    =   0.0000000000000E+00
(PID.TID 0000.0001) %MON g__extforcing_g_qnet_sd      =   0.0000000000000E+00
(PID.TID 0000.0001) %MON g__extforcing_g_qnet_del2    =   0.0000000000000E+00
(PID.TID 0000.0001) %MON g__extforcing_g_empmr_max    =   0.0000000000000E+00
(PID.TID 0000.0001) %MON g__extforcing_g_empmr_min    =   0.0000000000000E+00
(PID.TID 0000.0001) %MON g__extforcing_g_empmr_mean   =   0.0000000000000E+00
(PID.TID 0000.0001) %MON g__extforcing_g_empmr_sd     =   0.0000000000000E+00
(PID.TID 0000.0001) %MON g__extforcing_g_empmr_del2   =   0.0000000000000E+00
(PID.TID 0000.0001) %MON g__extforcing_g_fu_max       =   0.0000000000000E+00
(PID.TID 0000.0001) %MON g__extforcing_g_fu_min       =   0.0000000000000E+00
(PID.TID 0000.0001) %MON g__extforcing_g_fu_mean      =   0.0000000000000E+00
(PID.TID 0000.0001) %MON g__extforcing_g_fu_sd        =   0.0000000000000E+00
(PID.TID 0000.0001) %MON g__extforcing_g_fu_del2      =   0.0000000000000E+00
(PID.TID 0000.0001) %MON g__extforcing_g_fv_max       =   0.0000000000000E+00
(PID.TID 0000.0001) %MON g__extforcing_g_fv_min       =   0.0000000000000E+00
(PID.TID 0000.0001) %MON g__extforcing_g_fv_mean      =   0.0000000000000E+00
(PID.TID 0000.0001) %MON g__extforcing_g_fv_sd        =   0.0000000000000E+00
(PID.TID 0000.0001) %MON g__extforcing_g_fv_del2      =   0.0000000000000E+00
(PID.TID 0000.0001) %MON g__g_vcfl_g_uvel_max         =   0.0000000000000E+00
(PID.TID 0000.0001) %MON g__g_vcfl_g_vvel_max         =   0.0000000000000E+00
(PID.TID 0000.0001) %MON g__g_vcfl_g_wvel_max         =   0.0000000000000E+00
(PID.TID 0000.0001) %MON g__g_vcfl_g_W_hf_max         =   0.0000000000000E+00
(PID.TID 0000.0001) // =======================================================
(PID.TID 0000.0001) // End MONITOR dynamic field statistics
(PID.TID 0000.0001) // =======================================================
 cg2d: Sum(rhs),rhsMax =   0.00000000000000E+00  0.00000000000000E+00
 cg2d: Sum(rhs),rhsMax =   2.56763360573231E-12  8.95108976893283E+00
(PID.TID 0000.0001) // =======================================================
(PID.TID 0000.0001) // Begin MONITOR dynamic field statistics
(PID.TID 0000.0001) // =======================================================
(PID.TID 0000.0001) %MON g__time_tsnumber             =                    82
(PID.TID 0000.0001) %MON g__time_secondsf             =   3.5424000000000E+06
(PID.TID 0000.0001) %MON g__dynstat_g_eta_max         =   0.0000000000000E+00
(PID.TID 0000.0001) %MON g__dynstat_g_eta_min         =   0.0000000000000E+00
(PID.TID 0000.0001) %MON g__dynstat_g_eta_mean        =   0.0000000000000E+00
(PID.TID 0000.0001) %MON g__dynstat_g_eta_sd          =   0.0000000000000E+00
(PID.TID 0000.0001) %MON g__dynstat_g_eta_del2        =   0.0000000000000E+00
(PID.TID 0000.0001) %MON g__dynstat_g_uvel_max        =   0.0000000000000E+00
(PID.TID 0000.0001) %MON g__dynstat_g_uvel_min        =   0.0000000000000E+00
(PID.TID 0000.0001) %MON g__dynstat_g_uvel_mean       =   0.0000000000000E+00
(PID.TID 0000.0001) %MON g__dynstat_g_uvel_sd         =   0.0000000000000E+00
(PID.TID 0000.0001) %MON g__dynstat_g_uvel_del2       =   0.0000000000000E+00
(PID.TID 0000.0001) %MON g__dynstat_g_vvel_max        =   0.0000000000000E+00
(PID.TID 0000.0001) %MON g__dynstat_g_vvel_min        =   0.0000000000000E+00
(PID.TID 0000.0001) %MON g__dynstat_g_vvel_mean       =   0.0000000000000E+00
(PID.TID 0000.0001) %MON g__dynstat_g_vvel_sd         =   0.0000000000000E+00
(PID.TID 0000.0001) %MON g__dynstat_g_vvel_del2       =   0.0000000000000E+00
(PID.TID 0000.0001) %MON g__dynstat_g_wvel_max        =   0.0000000000000E+00
(PID.TID 0000.0001) %MON g__dynstat_g_wvel_min        =   0.0000000000000E+00
(PID.TID 0000.0001) %MON g__dynstat_g_wvel_mean       =   0.0000000000000E+00
(PID.TID 0000.0001) %MON g__dynstat_g_wvel_sd         =   0.0000000000000E+00
(PID.TID 0000.0001) %MON g__dynstat_g_wvel_del2       =   0.0000000000000E+00
(PID.TID 0000.0001) %MON g__dynstat_g_theta_max       =   0.0000000000000E+00
(PID.TID 0000.0001) %MON g__dynstat_g_theta_min       =   0.0000000000000E+00
(PID.TID 0000.0001) %MON g__dynstat_g_theta_mean      =   0.0000000000000E+00
(PID.TID 0000.0001) %MON g__dynstat_g_theta_sd        =   0.0000000000000E+00
(PID.TID 0000.0001) %MON g__dynstat_g_theta_del2      =   0.0000000000000E+00
(PID.TID 0000.0001) %MON g__dynstat_g_salt_max        =   0.0000000000000E+00
(PID.TID 0000.0001) %MON g__dynstat_g_salt_min        =   0.0000000000000E+00
(PID.TID 0000.0001) %MON g__dynstat_g_salt_mean       =   0.0000000000000E+00
(PID.TID 0000.0001) %MON g__dynstat_g_salt_sd         =   0.0000000000000E+00
(PID.TID 0000.0001) %MON g__dynstat_g_salt_del2       =   0.0000000000000E+00
(PID.TID 0000.0001) %MON g__dynstat_g_sst_max         =   0.0000000000000E+00
(PID.TID 0000.0001) %MON g__dynstat_g_sst_min         =   0.0000000000000E+00
(PID.TID 0000.0001) %MON g__dynstat_g_sst_mean        =   0.0000000000000E+00
(PID.TID 0000.0001) %MON g__dynstat_g_sst_sd          =   0.0000000000000E+00
(PID.TID 0000.0001) %MON g__dynstat_g_sst_del2        =   0.0000000000000E+00
(PID.TID 0000.0001) %MON g__dynstat_g_sss_max         =   0.0000000000000E+00
(PID.TID 0000.0001) %MON g__dynstat_g_sss_min         =   0.0000000000000E+00
(PID.TID 0000.0001) %MON g__dynstat_g_sss_mean        =   0.0000000000000E+00
(PID.TID 0000.0001) %MON g__dynstat_g_sss_sd          =   0.0000000000000E+00
(PID.TID 0000.0001) %MON g__dynstat_g_sss_del2        =   0.0000000000000E+00
(PID.TID 0000.0001) %MON g__extforcing_g_qnet_max     =   0.0000000000000E+00
(PID.TID 0000.0001) %MON g__extforcing_g_qnet_min     =   0.0000000000000E+00
(PID.TID 0000.0001) %MON g__extforcing_g_qnet_mean    =   0.0000000000000E+00
(PID.TID 0000.0001) %MON g__extforcing_g_qnet_sd      =   0.0000000000000E+00
(PID.TID 0000.0001) %MON g__extforcing_g_qnet_del2    =   0.0000000000000E+00
(PID.TID 0000.0001) %MON g__extforcing_g_empmr_max    =   0.0000000000000E+00
(PID.TID 0000.0001) %MON g__extforcing_g_empmr_min    =   0.0000000000000E+00
(PID.TID 0000.0001) %MON g__extforcing_g_empmr_mean   =   0.0000000000000E+00
(PID.TID 0000.0001) %MON g__extforcing_g_empmr_sd     =   0.0000000000000E+00
(PID.TID 0000.0001) %MON g__extforcing_g_empmr_del2   =   0.0000000000000E+00
(PID.TID 0000.0001) %MON g__extforcing_g_fu_max       =   0.0000000000000E+00
(PID.TID 0000.0001) %MON g__extforcing_g_fu_min       =   0.0000000000000E+00
(PID.TID 0000.0001) %MON g__extforcing_g_fu_mean      =   0.0000000000000E+00
(PID.TID 0000.0001) %MON g__extforcing_g_fu_sd        =   0.0000000000000E+00
(PID.TID 0000.0001) %MON g__extforcing_g_fu_del2      =   0.0000000000000E+00
(PID.TID 0000.0001) %MON g__extforcing_g_fv_max       =   0.0000000000000E+00
(PID.TID 0000.0001) %MON g__extforcing_g_fv_min       =   0.0000000000000E+00
(PID.TID 0000.0001) %MON g__extforcing_g_fv_mean      =   0.0000000000000E+00
(PID.TID 0000.0001) %MON g__extforcing_g_fv_sd        =   0.0000000000000E+00
(PID.TID 0000.0001) %MON g__extforcing_g_fv_del2      =   0.0000000000000E+00
(PID.TID 0000.0001) %MON g__g_vcfl_g_uvel_max         =   0.0000000000000E+00
(PID.TID 0000.0001) %MON g__g_vcfl_g_vvel_max         =   0.0000000000000E+00
(PID.TID 0000.0001) %MON g__g_vcfl_g_wvel_max         =   0.0000000000000E+00
(PID.TID 0000.0001) %MON g__g_vcfl_g_W_hf_max         =   0.0000000000000E+00
(PID.TID 0000.0001) // =======================================================
(PID.TID 0000.0001) // End MONITOR dynamic field statistics
(PID.TID 0000.0001) // =======================================================
 cg2d: Sum(rhs),rhsMax =   0.00000000000000E+00  0.00000000000000E+00
 cg2d: Sum(rhs),rhsMax =   3.40433237155935E-12  8.57195997233524E+00
(PID.TID 0000.0001) // =======================================================
(PID.TID 0000.0001) // Begin MONITOR dynamic field statistics
(PID.TID 0000.0001) // =======================================================
(PID.TID 0000.0001) %MON g__time_tsnumber             =                    83
(PID.TID 0000.0001) %MON g__time_secondsf             =   3.5856000000000E+06
(PID.TID 0000.0001) %MON g__dynstat_g_eta_max         =   0.0000000000000E+00
(PID.TID 0000.0001) %MON g__dynstat_g_eta_min         =   0.0000000000000E+00
(PID.TID 0000.0001) %MON g__dynstat_g_eta_mean        =   0.0000000000000E+00
(PID.TID 0000.0001) %MON g__dynstat_g_eta_sd          =   0.0000000000000E+00
(PID.TID 0000.0001) %MON g__dynstat_g_eta_del2        =   0.0000000000000E+00
(PID.TID 0000.0001) %MON g__dynstat_g_uvel_max        =   0.0000000000000E+00
(PID.TID 0000.0001) %MON g__dynstat_g_uvel_min        =   0.0000000000000E+00
(PID.TID 0000.0001) %MON g__dynstat_g_uvel_mean       =   0.0000000000000E+00
(PID.TID 0000.0001) %MON g__dynstat_g_uvel_sd         =   0.0000000000000E+00
(PID.TID 0000.0001) %MON g__dynstat_g_uvel_del2       =   0.0000000000000E+00
(PID.TID 0000.0001) %MON g__dynstat_g_vvel_max        =   0.0000000000000E+00
(PID.TID 0000.0001) %MON g__dynstat_g_vvel_min        =   0.0000000000000E+00
(PID.TID 0000.0001) %MON g__dynstat_g_vvel_mean       =   0.0000000000000E+00
(PID.TID 0000.0001) %MON g__dynstat_g_vvel_sd         =   0.0000000000000E+00
(PID.TID 0000.0001) %MON g__dynstat_g_vvel_del2       =   0.0000000000000E+00
(PID.TID 0000.0001) %MON g__dynstat_g_wvel_max        =   0.0000000000000E+00
(PID.TID 0000.0001) %MON g__dynstat_g_wvel_min        =   0.0000000000000E+00
(PID.TID 0000.0001) %MON g__dynstat_g_wvel_mean       =   0.0000000000000E+00
(PID.TID 0000.0001) %MON g__dynstat_g_wvel_sd         =   0.0000000000000E+00
(PID.TID 0000.0001) %MON g__dynstat_g_wvel_del2       =   0.0000000000000E+00
(PID.TID 0000.0001) %MON g__dynstat_g_theta_max       =   0.0000000000000E+00
(PID.TID 0000.0001) %MON g__dynstat_g_theta_min       =   0.0000000000000E+00
(PID.TID 0000.0001) %MON g__dynstat_g_theta_mean      =   0.0000000000000E+00
(PID.TID 0000.0001) %MON g__dynstat_g_theta_sd        =   0.0000000000000E+00
(PID.TID 0000.0001) %MON g__dynstat_g_theta_del2      =   0.0000000000000E+00
(PID.TID 0000.0001) %MON g__dynstat_g_salt_max        =   0.0000000000000E+00
(PID.TID 0000.0001) %MON g__dynstat_g_salt_min        =   0.0000000000000E+00
(PID.TID 0000.0001) %MON g__dynstat_g_salt_mean       =   0.0000000000000E+00
(PID.TID 0000.0001) %MON g__dynstat_g_salt_sd         =   0.0000000000000E+00
(PID.TID 0000.0001) %MON g__dynstat_g_salt_del2       =   0.0000000000000E+00
(PID.TID 0000.0001) %MON g__dynstat_g_sst_max         =   0.0000000000000E+00
(PID.TID 0000.0001) %MON g__dynstat_g_sst_min         =   0.0000000000000E+00
(PID.TID 0000.0001) %MON g__dynstat_g_sst_mean        =   0.0000000000000E+00
(PID.TID 0000.0001) %MON g__dynstat_g_sst_sd          =   0.0000000000000E+00
(PID.TID 0000.0001) %MON g__dynstat_g_sst_del2        =   0.0000000000000E+00
(PID.TID 0000.0001) %MON g__dynstat_g_sss_max         =   0.0000000000000E+00
(PID.TID 0000.0001) %MON g__dynstat_g_sss_min         =   0.0000000000000E+00
(PID.TID 0000.0001) %MON g__dynstat_g_sss_mean        =   0.0000000000000E+00
(PID.TID 0000.0001) %MON g__dynstat_g_sss_sd          =   0.0000000000000E+00
(PID.TID 0000.0001) %MON g__dynstat_g_sss_del2        =   0.0000000000000E+00
(PID.TID 0000.0001) %MON g__extforcing_g_qnet_max     =   0.0000000000000E+00
(PID.TID 0000.0001) %MON g__extforcing_g_qnet_min     =   0.0000000000000E+00
(PID.TID 0000.0001) %MON g__extforcing_g_qnet_mean    =   0.0000000000000E+00
(PID.TID 0000.0001) %MON g__extforcing_g_qnet_sd      =   0.0000000000000E+00
(PID.TID 0000.0001) %MON g__extforcing_g_qnet_del2    =   0.0000000000000E+00
(PID.TID 0000.0001) %MON g__extforcing_g_empmr_max    =   0.0000000000000E+00
(PID.TID 0000.0001) %MON g__extforcing_g_empmr_min    =   0.0000000000000E+00
(PID.TID 0000.0001) %MON g__extforcing_g_empmr_mean   =   0.0000000000000E+00
(PID.TID 0000.0001) %MON g__extforcing_g_empmr_sd     =   0.0000000000000E+00
(PID.TID 0000.0001) %MON g__extforcing_g_empmr_del2   =   0.0000000000000E+00
(PID.TID 0000.0001) %MON g__extforcing_g_fu_max       =   0.0000000000000E+00
(PID.TID 0000.0001) %MON g__extforcing_g_fu_min       =   0.0000000000000E+00
(PID.TID 0000.0001) %MON g__extforcing_g_fu_mean      =   0.0000000000000E+00
(PID.TID 0000.0001) %MON g__extforcing_g_fu_sd        =   0.0000000000000E+00
(PID.TID 0000.0001) %MON g__extforcing_g_fu_del2      =   0.0000000000000E+00
(PID.TID 0000.0001) %MON g__extforcing_g_fv_max       =   0.0000000000000E+00
(PID.TID 0000.0001) %MON g__extforcing_g_fv_min       =   0.0000000000000E+00
(PID.TID 0000.0001) %MON g__extforcing_g_fv_mean      =   0.0000000000000E+00
(PID.TID 0000.0001) %MON g__extforcing_g_fv_sd        =   0.0000000000000E+00
(PID.TID 0000.0001) %MON g__extforcing_g_fv_del2      =   0.0000000000000E+00
(PID.TID 0000.0001) %MON g__g_vcfl_g_uvel_max         =   0.0000000000000E+00
(PID.TID 0000.0001) %MON g__g_vcfl_g_vvel_max         =   0.0000000000000E+00
(PID.TID 0000.0001) %MON g__g_vcfl_g_wvel_max         =   0.0000000000000E+00
(PID.TID 0000.0001) %MON g__g_vcfl_g_W_hf_max         =   0.0000000000000E+00
(PID.TID 0000.0001) // =======================================================
(PID.TID 0000.0001) // End MONITOR dynamic field statistics
(PID.TID 0000.0001) // =======================================================
 cg2d: Sum(rhs),rhsMax =   0.00000000000000E+00  0.00000000000000E+00
 cg2d: Sum(rhs),rhsMax =   3.38513939102114E-12  8.11762771956998E+00
(PID.TID 0000.0001) // =======================================================
(PID.TID 0000.0001) // Begin MONITOR dynamic field statistics
(PID.TID 0000.0001) // =======================================================
(PID.TID 0000.0001) %MON g__time_tsnumber             =                    84
(PID.TID 0000.0001) %MON g__time_secondsf             =   3.6288000000000E+06
(PID.TID 0000.0001) %MON g__dynstat_g_eta_max         =   0.0000000000000E+00
(PID.TID 0000.0001) %MON g__dynstat_g_eta_min         =   0.0000000000000E+00
(PID.TID 0000.0001) %MON g__dynstat_g_eta_mean        =   0.0000000000000E+00
(PID.TID 0000.0001) %MON g__dynstat_g_eta_sd          =   0.0000000000000E+00
(PID.TID 0000.0001) %MON g__dynstat_g_eta_del2        =   0.0000000000000E+00
(PID.TID 0000.0001) %MON g__dynstat_g_uvel_max        =   0.0000000000000E+00
(PID.TID 0000.0001) %MON g__dynstat_g_uvel_min        =   0.0000000000000E+00
(PID.TID 0000.0001) %MON g__dynstat_g_uvel_mean       =   0.0000000000000E+00
(PID.TID 0000.0001) %MON g__dynstat_g_uvel_sd         =   0.0000000000000E+00
(PID.TID 0000.0001) %MON g__dynstat_g_uvel_del2       =   0.0000000000000E+00
(PID.TID 0000.0001) %MON g__dynstat_g_vvel_max        =   0.0000000000000E+00
(PID.TID 0000.0001) %MON g__dynstat_g_vvel_min        =   0.0000000000000E+00
(PID.TID 0000.0001) %MON g__dynstat_g_vvel_mean       =   0.0000000000000E+00
(PID.TID 0000.0001) %MON g__dynstat_g_vvel_sd         =   0.0000000000000E+00
(PID.TID 0000.0001) %MON g__dynstat_g_vvel_del2       =   0.0000000000000E+00
(PID.TID 0000.0001) %MON g__dynstat_g_wvel_max        =   0.0000000000000E+00
(PID.TID 0000.0001) %MON g__dynstat_g_wvel_min        =   0.0000000000000E+00
(PID.TID 0000.0001) %MON g__dynstat_g_wvel_mean       =   0.0000000000000E+00
(PID.TID 0000.0001) %MON g__dynstat_g_wvel_sd         =   0.0000000000000E+00
(PID.TID 0000.0001) %MON g__dynstat_g_wvel_del2       =   0.0000000000000E+00
(PID.TID 0000.0001) %MON g__dynstat_g_theta_max       =   0.0000000000000E+00
(PID.TID 0000.0001) %MON g__dynstat_g_theta_min       =   0.0000000000000E+00
(PID.TID 0000.0001) %MON g__dynstat_g_theta_mean      =   0.0000000000000E+00
(PID.TID 0000.0001) %MON g__dynstat_g_theta_sd        =   0.0000000000000E+00
(PID.TID 0000.0001) %MON g__dynstat_g_theta_del2      =   0.0000000000000E+00
(PID.TID 0000.0001) %MON g__dynstat_g_salt_max        =   0.0000000000000E+00
(PID.TID 0000.0001) %MON g__dynstat_g_salt_min        =   0.0000000000000E+00
(PID.TID 0000.0001) %MON g__dynstat_g_salt_mean       =   0.0000000000000E+00
(PID.TID 0000.0001) %MON g__dynstat_g_salt_sd         =   0.0000000000000E+00
(PID.TID 0000.0001) %MON g__dynstat_g_salt_del2       =   0.0000000000000E+00
(PID.TID 0000.0001) %MON g__dynstat_g_sst_max         =   0.0000000000000E+00
(PID.TID 0000.0001) %MON g__dynstat_g_sst_min         =   0.0000000000000E+00
(PID.TID 0000.0001) %MON g__dynstat_g_sst_mean        =   0.0000000000000E+00
(PID.TID 0000.0001) %MON g__dynstat_g_sst_sd          =   0.0000000000000E+00
(PID.TID 0000.0001) %MON g__dynstat_g_sst_del2        =   0.0000000000000E+00
(PID.TID 0000.0001) %MON g__dynstat_g_sss_max         =   0.0000000000000E+00
(PID.TID 0000.0001) %MON g__dynstat_g_sss_min         =   0.0000000000000E+00
(PID.TID 0000.0001) %MON g__dynstat_g_sss_mean        =   0.0000000000000E+00
(PID.TID 0000.0001) %MON g__dynstat_g_sss_sd          =   0.0000000000000E+00
(PID.TID 0000.0001) %MON g__dynstat_g_sss_del2        =   0.0000000000000E+00
(PID.TID 0000.0001) %MON g__extforcing_g_qnet_max     =   0.0000000000000E+00
(PID.TID 0000.0001) %MON g__extforcing_g_qnet_min     =   0.0000000000000E+00
(PID.TID 0000.0001) %MON g__extforcing_g_qnet_mean    =   0.0000000000000E+00
(PID.TID 0000.0001) %MON g__extforcing_g_qnet_sd      =   0.0000000000000E+00
(PID.TID 0000.0001) %MON g__extforcing_g_qnet_del2    =   0.0000000000000E+00
(PID.TID 0000.0001) %MON g__extforcing_g_empmr_max    =   0.0000000000000E+00
(PID.TID 0000.0001) %MON g__extforcing_g_empmr_min    =   0.0000000000000E+00
(PID.TID 0000.0001) %MON g__extforcing_g_empmr_mean   =   0.0000000000000E+00
(PID.TID 0000.0001) %MON g__extforcing_g_empmr_sd     =   0.0000000000000E+00
(PID.TID 0000.0001) %MON g__extforcing_g_empmr_del2   =   0.0000000000000E+00
(PID.TID 0000.0001) %MON g__extforcing_g_fu_max       =   0.0000000000000E+00
(PID.TID 0000.0001) %MON g__extforcing_g_fu_min       =   0.0000000000000E+00
(PID.TID 0000.0001) %MON g__extforcing_g_fu_mean      =   0.0000000000000E+00
(PID.TID 0000.0001) %MON g__extforcing_g_fu_sd        =   0.0000000000000E+00
(PID.TID 0000.0001) %MON g__extforcing_g_fu_del2      =   0.0000000000000E+00
(PID.TID 0000.0001) %MON g__extforcing_g_fv_max       =   0.0000000000000E+00
(PID.TID 0000.0001) %MON g__extforcing_g_fv_min       =   0.0000000000000E+00
(PID.TID 0000.0001) %MON g__extforcing_g_fv_mean      =   0.0000000000000E+00
(PID.TID 0000.0001) %MON g__extforcing_g_fv_sd        =   0.0000000000000E+00
(PID.TID 0000.0001) %MON g__extforcing_g_fv_del2      =   0.0000000000000E+00
(PID.TID 0000.0001) %MON g__g_vcfl_g_uvel_max         =   0.0000000000000E+00
(PID.TID 0000.0001) %MON g__g_vcfl_g_vvel_max         =   0.0000000000000E+00
(PID.TID 0000.0001) %MON g__g_vcfl_g_wvel_max         =   0.0000000000000E+00
(PID.TID 0000.0001) %MON g__g_vcfl_g_W_hf_max         =   0.0000000000000E+00
(PID.TID 0000.0001) // =======================================================
(PID.TID 0000.0001) // End MONITOR dynamic field statistics
(PID.TID 0000.0001) // =======================================================
 cg2d: Sum(rhs),rhsMax =   0.00000000000000E+00  0.00000000000000E+00
 cg2d: Sum(rhs),rhsMax =   3.82306686308453E-12  8.02199626746563E+00
(PID.TID 0000.0001) // =======================================================
(PID.TID 0000.0001) // Begin MONITOR dynamic field statistics
(PID.TID 0000.0001) // =======================================================
(PID.TID 0000.0001) %MON g__time_tsnumber             =                    85
(PID.TID 0000.0001) %MON g__time_secondsf             =   3.6720000000000E+06
(PID.TID 0000.0001) %MON g__dynstat_g_eta_max         =   0.0000000000000E+00
(PID.TID 0000.0001) %MON g__dynstat_g_eta_min         =   0.0000000000000E+00
(PID.TID 0000.0001) %MON g__dynstat_g_eta_mean        =   0.0000000000000E+00
(PID.TID 0000.0001) %MON g__dynstat_g_eta_sd          =   0.0000000000000E+00
(PID.TID 0000.0001) %MON g__dynstat_g_eta_del2        =   0.0000000000000E+00
(PID.TID 0000.0001) %MON g__dynstat_g_uvel_max        =   0.0000000000000E+00
(PID.TID 0000.0001) %MON g__dynstat_g_uvel_min        =   0.0000000000000E+00
(PID.TID 0000.0001) %MON g__dynstat_g_uvel_mean       =   0.0000000000000E+00
(PID.TID 0000.0001) %MON g__dynstat_g_uvel_sd         =   0.0000000000000E+00
(PID.TID 0000.0001) %MON g__dynstat_g_uvel_del2       =   0.0000000000000E+00
(PID.TID 0000.0001) %MON g__dynstat_g_vvel_max        =   0.0000000000000E+00
(PID.TID 0000.0001) %MON g__dynstat_g_vvel_min        =   0.0000000000000E+00
(PID.TID 0000.0001) %MON g__dynstat_g_vvel_mean       =   0.0000000000000E+00
(PID.TID 0000.0001) %MON g__dynstat_g_vvel_sd         =   0.0000000000000E+00
(PID.TID 0000.0001) %MON g__dynstat_g_vvel_del2       =   0.0000000000000E+00
(PID.TID 0000.0001) %MON g__dynstat_g_wvel_max        =   0.0000000000000E+00
(PID.TID 0000.0001) %MON g__dynstat_g_wvel_min        =   0.0000000000000E+00
(PID.TID 0000.0001) %MON g__dynstat_g_wvel_mean       =   0.0000000000000E+00
(PID.TID 0000.0001) %MON g__dynstat_g_wvel_sd         =   0.0000000000000E+00
(PID.TID 0000.0001) %MON g__dynstat_g_wvel_del2       =   0.0000000000000E+00
(PID.TID 0000.0001) %MON g__dynstat_g_theta_max       =   0.0000000000000E+00
(PID.TID 0000.0001) %MON g__dynstat_g_theta_min       =   0.0000000000000E+00
(PID.TID 0000.0001) %MON g__dynstat_g_theta_mean      =   0.0000000000000E+00
(PID.TID 0000.0001) %MON g__dynstat_g_theta_sd        =   0.0000000000000E+00
(PID.TID 0000.0001) %MON g__dynstat_g_theta_del2      =   0.0000000000000E+00
(PID.TID 0000.0001) %MON g__dynstat_g_salt_max        =   0.0000000000000E+00
(PID.TID 0000.0001) %MON g__dynstat_g_salt_min        =   0.0000000000000E+00
(PID.TID 0000.0001) %MON g__dynstat_g_salt_mean       =   0.0000000000000E+00
(PID.TID 0000.0001) %MON g__dynstat_g_salt_sd         =   0.0000000000000E+00
(PID.TID 0000.0001) %MON g__dynstat_g_salt_del2       =   0.0000000000000E+00
(PID.TID 0000.0001) %MON g__dynstat_g_sst_max         =   0.0000000000000E+00
(PID.TID 0000.0001) %MON g__dynstat_g_sst_min         =   0.0000000000000E+00
(PID.TID 0000.0001) %MON g__dynstat_g_sst_mean        =   0.0000000000000E+00
(PID.TID 0000.0001) %MON g__dynstat_g_sst_sd          =   0.0000000000000E+00
(PID.TID 0000.0001) %MON g__dynstat_g_sst_del2        =   0.0000000000000E+00
(PID.TID 0000.0001) %MON g__dynstat_g_sss_max         =   0.0000000000000E+00
(PID.TID 0000.0001) %MON g__dynstat_g_sss_min         =   0.0000000000000E+00
(PID.TID 0000.0001) %MON g__dynstat_g_sss_mean        =   0.0000000000000E+00
(PID.TID 0000.0001) %MON g__dynstat_g_sss_sd          =   0.0000000000000E+00
(PID.TID 0000.0001) %MON g__dynstat_g_sss_del2        =   0.0000000000000E+00
(PID.TID 0000.0001) %MON g__extforcing_g_qnet_max     =   0.0000000000000E+00
(PID.TID 0000.0001) %MON g__extforcing_g_qnet_min     =   0.0000000000000E+00
(PID.TID 0000.0001) %MON g__extforcing_g_qnet_mean    =   0.0000000000000E+00
(PID.TID 0000.0001) %MON g__extforcing_g_qnet_sd      =   0.0000000000000E+00
(PID.TID 0000.0001) %MON g__extforcing_g_qnet_del2    =   0.0000000000000E+00
(PID.TID 0000.0001) %MON g__extforcing_g_empmr_max    =   0.0000000000000E+00
(PID.TID 0000.0001) %MON g__extforcing_g_empmr_min    =   0.0000000000000E+00
(PID.TID 0000.0001) %MON g__extforcing_g_empmr_mean   =   0.0000000000000E+00
(PID.TID 0000.0001) %MON g__extforcing_g_empmr_sd     =   0.0000000000000E+00
(PID.TID 0000.0001) %MON g__extforcing_g_empmr_del2   =   0.0000000000000E+00
(PID.TID 0000.0001) %MON g__extforcing_g_fu_max       =   0.0000000000000E+00
(PID.TID 0000.0001) %MON g__extforcing_g_fu_min       =   0.0000000000000E+00
(PID.TID 0000.0001) %MON g__extforcing_g_fu_mean      =   0.0000000000000E+00
(PID.TID 0000.0001) %MON g__extforcing_g_fu_sd        =   0.0000000000000E+00
(PID.TID 0000.0001) %MON g__extforcing_g_fu_del2      =   0.0000000000000E+00
(PID.TID 0000.0001) %MON g__extforcing_g_fv_max       =   0.0000000000000E+00
(PID.TID 0000.0001) %MON g__extforcing_g_fv_min       =   0.0000000000000E+00
(PID.TID 0000.0001) %MON g__extforcing_g_fv_mean      =   0.0000000000000E+00
(PID.TID 0000.0001) %MON g__extforcing_g_fv_sd        =   0.0000000000000E+00
(PID.TID 0000.0001) %MON g__extforcing_g_fv_del2      =   0.0000000000000E+00
(PID.TID 0000.0001) %MON g__g_vcfl_g_uvel_max         =   0.0000000000000E+00
(PID.TID 0000.0001) %MON g__g_vcfl_g_vvel_max         =   0.0000000000000E+00
(PID.TID 0000.0001) %MON g__g_vcfl_g_wvel_max         =   0.0000000000000E+00
(PID.TID 0000.0001) %MON g__g_vcfl_g_W_hf_max         =   0.0000000000000E+00
(PID.TID 0000.0001) // =======================================================
(PID.TID 0000.0001) // End MONITOR dynamic field statistics
(PID.TID 0000.0001) // =======================================================
 cg2d: Sum(rhs),rhsMax =   0.00000000000000E+00  0.00000000000000E+00
 cg2d: Sum(rhs),rhsMax =   3.63661878388655E-12  7.98965232758878E+00
(PID.TID 0000.0001) // =======================================================
(PID.TID 0000.0001) // Begin MONITOR dynamic field statistics
(PID.TID 0000.0001) // =======================================================
(PID.TID 0000.0001) %MON g__time_tsnumber             =                    86
(PID.TID 0000.0001) %MON g__time_secondsf             =   3.7152000000000E+06
(PID.TID 0000.0001) %MON g__dynstat_g_eta_max         =   0.0000000000000E+00
(PID.TID 0000.0001) %MON g__dynstat_g_eta_min         =   0.0000000000000E+00
(PID.TID 0000.0001) %MON g__dynstat_g_eta_mean        =   0.0000000000000E+00
(PID.TID 0000.0001) %MON g__dynstat_g_eta_sd          =   0.0000000000000E+00
(PID.TID 0000.0001) %MON g__dynstat_g_eta_del2        =   0.0000000000000E+00
(PID.TID 0000.0001) %MON g__dynstat_g_uvel_max        =   0.0000000000000E+00
(PID.TID 0000.0001) %MON g__dynstat_g_uvel_min        =   0.0000000000000E+00
(PID.TID 0000.0001) %MON g__dynstat_g_uvel_mean       =   0.0000000000000E+00
(PID.TID 0000.0001) %MON g__dynstat_g_uvel_sd         =   0.0000000000000E+00
(PID.TID 0000.0001) %MON g__dynstat_g_uvel_del2       =   0.0000000000000E+00
(PID.TID 0000.0001) %MON g__dynstat_g_vvel_max        =   0.0000000000000E+00
(PID.TID 0000.0001) %MON g__dynstat_g_vvel_min        =   0.0000000000000E+00
(PID.TID 0000.0001) %MON g__dynstat_g_vvel_mean       =   0.0000000000000E+00
(PID.TID 0000.0001) %MON g__dynstat_g_vvel_sd         =   0.0000000000000E+00
(PID.TID 0000.0001) %MON g__dynstat_g_vvel_del2       =   0.0000000000000E+00
(PID.TID 0000.0001) %MON g__dynstat_g_wvel_max        =   0.0000000000000E+00
(PID.TID 0000.0001) %MON g__dynstat_g_wvel_min        =   0.0000000000000E+00
(PID.TID 0000.0001) %MON g__dynstat_g_wvel_mean       =   0.0000000000000E+00
(PID.TID 0000.0001) %MON g__dynstat_g_wvel_sd         =   0.0000000000000E+00
(PID.TID 0000.0001) %MON g__dynstat_g_wvel_del2       =   0.0000000000000E+00
(PID.TID 0000.0001) %MON g__dynstat_g_theta_max       =   0.0000000000000E+00
(PID.TID 0000.0001) %MON g__dynstat_g_theta_min       =   0.0000000000000E+00
(PID.TID 0000.0001) %MON g__dynstat_g_theta_mean      =   0.0000000000000E+00
(PID.TID 0000.0001) %MON g__dynstat_g_theta_sd        =   0.0000000000000E+00
(PID.TID 0000.0001) %MON g__dynstat_g_theta_del2      =   0.0000000000000E+00
(PID.TID 0000.0001) %MON g__dynstat_g_salt_max        =   0.0000000000000E+00
(PID.TID 0000.0001) %MON g__dynstat_g_salt_min        =   0.0000000000000E+00
(PID.TID 0000.0001) %MON g__dynstat_g_salt_mean       =   0.0000000000000E+00
(PID.TID 0000.0001) %MON g__dynstat_g_salt_sd         =   0.0000000000000E+00
(PID.TID 0000.0001) %MON g__dynstat_g_salt_del2       =   0.0000000000000E+00
(PID.TID 0000.0001) %MON g__dynstat_g_sst_max         =   0.0000000000000E+00
(PID.TID 0000.0001) %MON g__dynstat_g_sst_min         =   0.0000000000000E+00
(PID.TID 0000.0001) %MON g__dynstat_g_sst_mean        =   0.0000000000000E+00
(PID.TID 0000.0001) %MON g__dynstat_g_sst_sd          =   0.0000000000000E+00
(PID.TID 0000.0001) %MON g__dynstat_g_sst_del2        =   0.0000000000000E+00
(PID.TID 0000.0001) %MON g__dynstat_g_sss_max         =   0.0000000000000E+00
(PID.TID 0000.0001) %MON g__dynstat_g_sss_min         =   0.0000000000000E+00
(PID.TID 0000.0001) %MON g__dynstat_g_sss_mean        =   0.0000000000000E+00
(PID.TID 0000.0001) %MON g__dynstat_g_sss_sd          =   0.0000000000000E+00
(PID.TID 0000.0001) %MON g__dynstat_g_sss_del2        =   0.0000000000000E+00
(PID.TID 0000.0001) %MON g__extforcing_g_qnet_max     =   0.0000000000000E+00
(PID.TID 0000.0001) %MON g__extforcing_g_qnet_min     =   0.0000000000000E+00
(PID.TID 0000.0001) %MON g__extforcing_g_qnet_mean    =   0.0000000000000E+00
(PID.TID 0000.0001) %MON g__extforcing_g_qnet_sd      =   0.0000000000000E+00
(PID.TID 0000.0001) %MON g__extforcing_g_qnet_del2    =   0.0000000000000E+00
(PID.TID 0000.0001) %MON g__extforcing_g_empmr_max    =   0.0000000000000E+00
(PID.TID 0000.0001) %MON g__extforcing_g_empmr_min    =   0.0000000000000E+00
(PID.TID 0000.0001) %MON g__extforcing_g_empmr_mean   =   0.0000000000000E+00
(PID.TID 0000.0001) %MON g__extforcing_g_empmr_sd     =   0.0000000000000E+00
(PID.TID 0000.0001) %MON g__extforcing_g_empmr_del2   =   0.0000000000000E+00
(PID.TID 0000.0001) %MON g__extforcing_g_fu_max       =   0.0000000000000E+00
(PID.TID 0000.0001) %MON g__extforcing_g_fu_min       =   0.0000000000000E+00
(PID.TID 0000.0001) %MON g__extforcing_g_fu_mean      =   0.0000000000000E+00
(PID.TID 0000.0001) %MON g__extforcing_g_fu_sd        =   0.0000000000000E+00
(PID.TID 0000.0001) %MON g__extforcing_g_fu_del2      =   0.0000000000000E+00
(PID.TID 0000.0001) %MON g__extforcing_g_fv_max       =   0.0000000000000E+00
(PID.TID 0000.0001) %MON g__extforcing_g_fv_min       =   0.0000000000000E+00
(PID.TID 0000.0001) %MON g__extforcing_g_fv_mean      =   0.0000000000000E+00
(PID.TID 0000.0001) %MON g__extforcing_g_fv_sd        =   0.0000000000000E+00
(PID.TID 0000.0001) %MON g__extforcing_g_fv_del2      =   0.0000000000000E+00
(PID.TID 0000.0001) %MON g__g_vcfl_g_uvel_max         =   0.0000000000000E+00
(PID.TID 0000.0001) %MON g__g_vcfl_g_vvel_max         =   0.0000000000000E+00
(PID.TID 0000.0001) %MON g__g_vcfl_g_wvel_max         =   0.0000000000000E+00
(PID.TID 0000.0001) %MON g__g_vcfl_g_W_hf_max         =   0.0000000000000E+00
(PID.TID 0000.0001) // =======================================================
(PID.TID 0000.0001) // End MONITOR dynamic field statistics
(PID.TID 0000.0001) // =======================================================
 cg2d: Sum(rhs),rhsMax =   0.00000000000000E+00  0.00000000000000E+00
 cg2d: Sum(rhs),rhsMax =   4.57288373834075E-12  7.95826434668650E+00
(PID.TID 0000.0001) // =======================================================
(PID.TID 0000.0001) // Begin MONITOR dynamic field statistics
(PID.TID 0000.0001) // =======================================================
(PID.TID 0000.0001) %MON g__time_tsnumber             =                    87
(PID.TID 0000.0001) %MON g__time_secondsf             =   3.7584000000000E+06
(PID.TID 0000.0001) %MON g__dynstat_g_eta_max         =   0.0000000000000E+00
(PID.TID 0000.0001) %MON g__dynstat_g_eta_min         =   0.0000000000000E+00
(PID.TID 0000.0001) %MON g__dynstat_g_eta_mean        =   0.0000000000000E+00
(PID.TID 0000.0001) %MON g__dynstat_g_eta_sd          =   0.0000000000000E+00
(PID.TID 0000.0001) %MON g__dynstat_g_eta_del2        =   0.0000000000000E+00
(PID.TID 0000.0001) %MON g__dynstat_g_uvel_max        =   0.0000000000000E+00
(PID.TID 0000.0001) %MON g__dynstat_g_uvel_min        =   0.0000000000000E+00
(PID.TID 0000.0001) %MON g__dynstat_g_uvel_mean       =   0.0000000000000E+00
(PID.TID 0000.0001) %MON g__dynstat_g_uvel_sd         =   0.0000000000000E+00
(PID.TID 0000.0001) %MON g__dynstat_g_uvel_del2       =   0.0000000000000E+00
(PID.TID 0000.0001) %MON g__dynstat_g_vvel_max        =   0.0000000000000E+00
(PID.TID 0000.0001) %MON g__dynstat_g_vvel_min        =   0.0000000000000E+00
(PID.TID 0000.0001) %MON g__dynstat_g_vvel_mean       =   0.0000000000000E+00
(PID.TID 0000.0001) %MON g__dynstat_g_vvel_sd         =   0.0000000000000E+00
(PID.TID 0000.0001) %MON g__dynstat_g_vvel_del2       =   0.0000000000000E+00
(PID.TID 0000.0001) %MON g__dynstat_g_wvel_max        =   0.0000000000000E+00
(PID.TID 0000.0001) %MON g__dynstat_g_wvel_min        =   0.0000000000000E+00
(PID.TID 0000.0001) %MON g__dynstat_g_wvel_mean       =   0.0000000000000E+00
(PID.TID 0000.0001) %MON g__dynstat_g_wvel_sd         =   0.0000000000000E+00
(PID.TID 0000.0001) %MON g__dynstat_g_wvel_del2       =   0.0000000000000E+00
(PID.TID 0000.0001) %MON g__dynstat_g_theta_max       =   0.0000000000000E+00
(PID.TID 0000.0001) %MON g__dynstat_g_theta_min       =   0.0000000000000E+00
(PID.TID 0000.0001) %MON g__dynstat_g_theta_mean      =   0.0000000000000E+00
(PID.TID 0000.0001) %MON g__dynstat_g_theta_sd        =   0.0000000000000E+00
(PID.TID 0000.0001) %MON g__dynstat_g_theta_del2      =   0.0000000000000E+00
(PID.TID 0000.0001) %MON g__dynstat_g_salt_max        =   0.0000000000000E+00
(PID.TID 0000.0001) %MON g__dynstat_g_salt_min        =   0.0000000000000E+00
(PID.TID 0000.0001) %MON g__dynstat_g_salt_mean       =   0.0000000000000E+00
(PID.TID 0000.0001) %MON g__dynstat_g_salt_sd         =   0.0000000000000E+00
(PID.TID 0000.0001) %MON g__dynstat_g_salt_del2       =   0.0000000000000E+00
(PID.TID 0000.0001) %MON g__dynstat_g_sst_max         =   0.0000000000000E+00
(PID.TID 0000.0001) %MON g__dynstat_g_sst_min         =   0.0000000000000E+00
(PID.TID 0000.0001) %MON g__dynstat_g_sst_mean        =   0.0000000000000E+00
(PID.TID 0000.0001) %MON g__dynstat_g_sst_sd          =   0.0000000000000E+00
(PID.TID 0000.0001) %MON g__dynstat_g_sst_del2        =   0.0000000000000E+00
(PID.TID 0000.0001) %MON g__dynstat_g_sss_max         =   0.0000000000000E+00
(PID.TID 0000.0001) %MON g__dynstat_g_sss_min         =   0.0000000000000E+00
(PID.TID 0000.0001) %MON g__dynstat_g_sss_mean        =   0.0000000000000E+00
(PID.TID 0000.0001) %MON g__dynstat_g_sss_sd          =   0.0000000000000E+00
(PID.TID 0000.0001) %MON g__dynstat_g_sss_del2        =   0.0000000000000E+00
(PID.TID 0000.0001) %MON g__extforcing_g_qnet_max     =   0.0000000000000E+00
(PID.TID 0000.0001) %MON g__extforcing_g_qnet_min     =   0.0000000000000E+00
(PID.TID 0000.0001) %MON g__extforcing_g_qnet_mean    =   0.0000000000000E+00
(PID.TID 0000.0001) %MON g__extforcing_g_qnet_sd      =   0.0000000000000E+00
(PID.TID 0000.0001) %MON g__extforcing_g_qnet_del2    =   0.0000000000000E+00
(PID.TID 0000.0001) %MON g__extforcing_g_empmr_max    =   0.0000000000000E+00
(PID.TID 0000.0001) %MON g__extforcing_g_empmr_min    =   0.0000000000000E+00
(PID.TID 0000.0001) %MON g__extforcing_g_empmr_mean   =   0.0000000000000E+00
(PID.TID 0000.0001) %MON g__extforcing_g_empmr_sd     =   0.0000000000000E+00
(PID.TID 0000.0001) %MON g__extforcing_g_empmr_del2   =   0.0000000000000E+00
(PID.TID 0000.0001) %MON g__extforcing_g_fu_max       =   0.0000000000000E+00
(PID.TID 0000.0001) %MON g__extforcing_g_fu_min       =   0.0000000000000E+00
(PID.TID 0000.0001) %MON g__extforcing_g_fu_mean      =   0.0000000000000E+00
(PID.TID 0000.0001) %MON g__extforcing_g_fu_sd        =   0.0000000000000E+00
(PID.TID 0000.0001) %MON g__extforcing_g_fu_del2      =   0.0000000000000E+00
(PID.TID 0000.0001) %MON g__extforcing_g_fv_max       =   0.0000000000000E+00
(PID.TID 0000.0001) %MON g__extforcing_g_fv_min       =   0.0000000000000E+00
(PID.TID 0000.0001) %MON g__extforcing_g_fv_mean      =   0.0000000000000E+00
(PID.TID 0000.0001) %MON g__extforcing_g_fv_sd        =   0.0000000000000E+00
(PID.TID 0000.0001) %MON g__extforcing_g_fv_del2      =   0.0000000000000E+00
(PID.TID 0000.0001) %MON g__g_vcfl_g_uvel_max         =   0.0000000000000E+00
(PID.TID 0000.0001) %MON g__g_vcfl_g_vvel_max         =   0.0000000000000E+00
(PID.TID 0000.0001) %MON g__g_vcfl_g_wvel_max         =   0.0000000000000E+00
(PID.TID 0000.0001) %MON g__g_vcfl_g_W_hf_max         =   0.0000000000000E+00
(PID.TID 0000.0001) // =======================================================
(PID.TID 0000.0001) // End MONITOR dynamic field statistics
(PID.TID 0000.0001) // =======================================================
 cg2d: Sum(rhs),rhsMax =   0.00000000000000E+00  0.00000000000000E+00
 cg2d: Sum(rhs),rhsMax =   4.17173240396806E-12  7.92999023840165E+00
(PID.TID 0000.0001) // =======================================================
(PID.TID 0000.0001) // Begin MONITOR dynamic field statistics
(PID.TID 0000.0001) // =======================================================
(PID.TID 0000.0001) %MON g__time_tsnumber             =                    88
(PID.TID 0000.0001) %MON g__time_secondsf             =   3.8016000000000E+06
(PID.TID 0000.0001) %MON g__dynstat_g_eta_max         =   0.0000000000000E+00
(PID.TID 0000.0001) %MON g__dynstat_g_eta_min         =   0.0000000000000E+00
(PID.TID 0000.0001) %MON g__dynstat_g_eta_mean        =   0.0000000000000E+00
(PID.TID 0000.0001) %MON g__dynstat_g_eta_sd          =   0.0000000000000E+00
(PID.TID 0000.0001) %MON g__dynstat_g_eta_del2        =   0.0000000000000E+00
(PID.TID 0000.0001) %MON g__dynstat_g_uvel_max        =   0.0000000000000E+00
(PID.TID 0000.0001) %MON g__dynstat_g_uvel_min        =   0.0000000000000E+00
(PID.TID 0000.0001) %MON g__dynstat_g_uvel_mean       =   0.0000000000000E+00
(PID.TID 0000.0001) %MON g__dynstat_g_uvel_sd         =   0.0000000000000E+00
(PID.TID 0000.0001) %MON g__dynstat_g_uvel_del2       =   0.0000000000000E+00
(PID.TID 0000.0001) %MON g__dynstat_g_vvel_max        =   0.0000000000000E+00
(PID.TID 0000.0001) %MON g__dynstat_g_vvel_min        =   0.0000000000000E+00
(PID.TID 0000.0001) %MON g__dynstat_g_vvel_mean       =   0.0000000000000E+00
(PID.TID 0000.0001) %MON g__dynstat_g_vvel_sd         =   0.0000000000000E+00
(PID.TID 0000.0001) %MON g__dynstat_g_vvel_del2       =   0.0000000000000E+00
(PID.TID 0000.0001) %MON g__dynstat_g_wvel_max        =   0.0000000000000E+00
(PID.TID 0000.0001) %MON g__dynstat_g_wvel_min        =   0.0000000000000E+00
(PID.TID 0000.0001) %MON g__dynstat_g_wvel_mean       =   0.0000000000000E+00
(PID.TID 0000.0001) %MON g__dynstat_g_wvel_sd         =   0.0000000000000E+00
(PID.TID 0000.0001) %MON g__dynstat_g_wvel_del2       =   0.0000000000000E+00
(PID.TID 0000.0001) %MON g__dynstat_g_theta_max       =   0.0000000000000E+00
(PID.TID 0000.0001) %MON g__dynstat_g_theta_min       =   0.0000000000000E+00
(PID.TID 0000.0001) %MON g__dynstat_g_theta_mean      =   0.0000000000000E+00
(PID.TID 0000.0001) %MON g__dynstat_g_theta_sd        =   0.0000000000000E+00
(PID.TID 0000.0001) %MON g__dynstat_g_theta_del2      =   0.0000000000000E+00
(PID.TID 0000.0001) %MON g__dynstat_g_salt_max        =   0.0000000000000E+00
(PID.TID 0000.0001) %MON g__dynstat_g_salt_min        =   0.0000000000000E+00
(PID.TID 0000.0001) %MON g__dynstat_g_salt_mean       =   0.0000000000000E+00
(PID.TID 0000.0001) %MON g__dynstat_g_salt_sd         =   0.0000000000000E+00
(PID.TID 0000.0001) %MON g__dynstat_g_salt_del2       =   0.0000000000000E+00
(PID.TID 0000.0001) %MON g__dynstat_g_sst_max         =   0.0000000000000E+00
(PID.TID 0000.0001) %MON g__dynstat_g_sst_min         =   0.0000000000000E+00
(PID.TID 0000.0001) %MON g__dynstat_g_sst_mean        =   0.0000000000000E+00
(PID.TID 0000.0001) %MON g__dynstat_g_sst_sd          =   0.0000000000000E+00
(PID.TID 0000.0001) %MON g__dynstat_g_sst_del2        =   0.0000000000000E+00
(PID.TID 0000.0001) %MON g__dynstat_g_sss_max         =   0.0000000000000E+00
(PID.TID 0000.0001) %MON g__dynstat_g_sss_min         =   0.0000000000000E+00
(PID.TID 0000.0001) %MON g__dynstat_g_sss_mean        =   0.0000000000000E+00
(PID.TID 0000.0001) %MON g__dynstat_g_sss_sd          =   0.0000000000000E+00
(PID.TID 0000.0001) %MON g__dynstat_g_sss_del2        =   0.0000000000000E+00
(PID.TID 0000.0001) %MON g__extforcing_g_qnet_max     =   0.0000000000000E+00
(PID.TID 0000.0001) %MON g__extforcing_g_qnet_min     =   0.0000000000000E+00
(PID.TID 0000.0001) %MON g__extforcing_g_qnet_mean    =   0.0000000000000E+00
(PID.TID 0000.0001) %MON g__extforcing_g_qnet_sd      =   0.0000000000000E+00
(PID.TID 0000.0001) %MON g__extforcing_g_qnet_del2    =   0.0000000000000E+00
(PID.TID 0000.0001) %MON g__extforcing_g_empmr_max    =   0.0000000000000E+00
(PID.TID 0000.0001) %MON g__extforcing_g_empmr_min    =   0.0000000000000E+00
(PID.TID 0000.0001) %MON g__extforcing_g_empmr_mean   =   0.0000000000000E+00
(PID.TID 0000.0001) %MON g__extforcing_g_empmr_sd     =   0.0000000000000E+00
(PID.TID 0000.0001) %MON g__extforcing_g_empmr_del2   =   0.0000000000000E+00
(PID.TID 0000.0001) %MON g__extforcing_g_fu_max       =   0.0000000000000E+00
(PID.TID 0000.0001) %MON g__extforcing_g_fu_min       =   0.0000000000000E+00
(PID.TID 0000.0001) %MON g__extforcing_g_fu_mean      =   0.0000000000000E+00
(PID.TID 0000.0001) %MON g__extforcing_g_fu_sd        =   0.0000000000000E+00
(PID.TID 0000.0001) %MON g__extforcing_g_fu_del2      =   0.0000000000000E+00
(PID.TID 0000.0001) %MON g__extforcing_g_fv_max       =   0.0000000000000E+00
(PID.TID 0000.0001) %MON g__extforcing_g_fv_min       =   0.0000000000000E+00
(PID.TID 0000.0001) %MON g__extforcing_g_fv_mean      =   0.0000000000000E+00
(PID.TID 0000.0001) %MON g__extforcing_g_fv_sd        =   0.0000000000000E+00
(PID.TID 0000.0001) %MON g__extforcing_g_fv_del2      =   0.0000000000000E+00
(PID.TID 0000.0001) %MON g__g_vcfl_g_uvel_max         =   0.0000000000000E+00
(PID.TID 0000.0001) %MON g__g_vcfl_g_vvel_max         =   0.0000000000000E+00
(PID.TID 0000.0001) %MON g__g_vcfl_g_wvel_max         =   0.0000000000000E+00
(PID.TID 0000.0001) %MON g__g_vcfl_g_W_hf_max         =   0.0000000000000E+00
(PID.TID 0000.0001) // =======================================================
(PID.TID 0000.0001) // End MONITOR dynamic field statistics
(PID.TID 0000.0001) // =======================================================
 cg2d: Sum(rhs),rhsMax =   0.00000000000000E+00  0.00000000000000E+00
 cg2d: Sum(rhs),rhsMax =   3.87966048176480E-12  7.90697486204087E+00
(PID.TID 0000.0001) // =======================================================
(PID.TID 0000.0001) // Begin MONITOR dynamic field statistics
(PID.TID 0000.0001) // =======================================================
(PID.TID 0000.0001) %MON g__time_tsnumber             =                    89
(PID.TID 0000.0001) %MON g__time_secondsf             =   3.8448000000000E+06
(PID.TID 0000.0001) %MON g__dynstat_g_eta_max         =   0.0000000000000E+00
(PID.TID 0000.0001) %MON g__dynstat_g_eta_min         =   0.0000000000000E+00
(PID.TID 0000.0001) %MON g__dynstat_g_eta_mean        =   0.0000000000000E+00
(PID.TID 0000.0001) %MON g__dynstat_g_eta_sd          =   0.0000000000000E+00
(PID.TID 0000.0001) %MON g__dynstat_g_eta_del2        =   0.0000000000000E+00
(PID.TID 0000.0001) %MON g__dynstat_g_uvel_max        =   0.0000000000000E+00
(PID.TID 0000.0001) %MON g__dynstat_g_uvel_min        =   0.0000000000000E+00
(PID.TID 0000.0001) %MON g__dynstat_g_uvel_mean       =   0.0000000000000E+00
(PID.TID 0000.0001) %MON g__dynstat_g_uvel_sd         =   0.0000000000000E+00
(PID.TID 0000.0001) %MON g__dynstat_g_uvel_del2       =   0.0000000000000E+00
(PID.TID 0000.0001) %MON g__dynstat_g_vvel_max        =   0.0000000000000E+00
(PID.TID 0000.0001) %MON g__dynstat_g_vvel_min        =   0.0000000000000E+00
(PID.TID 0000.0001) %MON g__dynstat_g_vvel_mean       =   0.0000000000000E+00
(PID.TID 0000.0001) %MON g__dynstat_g_vvel_sd         =   0.0000000000000E+00
(PID.TID 0000.0001) %MON g__dynstat_g_vvel_del2       =   0.0000000000000E+00
(PID.TID 0000.0001) %MON g__dynstat_g_wvel_max        =   0.0000000000000E+00
(PID.TID 0000.0001) %MON g__dynstat_g_wvel_min        =   0.0000000000000E+00
(PID.TID 0000.0001) %MON g__dynstat_g_wvel_mean       =   0.0000000000000E+00
(PID.TID 0000.0001) %MON g__dynstat_g_wvel_sd         =   0.0000000000000E+00
(PID.TID 0000.0001) %MON g__dynstat_g_wvel_del2       =   0.0000000000000E+00
(PID.TID 0000.0001) %MON g__dynstat_g_theta_max       =   0.0000000000000E+00
(PID.TID 0000.0001) %MON g__dynstat_g_theta_min       =   0.0000000000000E+00
(PID.TID 0000.0001) %MON g__dynstat_g_theta_mean      =   0.0000000000000E+00
(PID.TID 0000.0001) %MON g__dynstat_g_theta_sd        =   0.0000000000000E+00
(PID.TID 0000.0001) %MON g__dynstat_g_theta_del2      =   0.0000000000000E+00
(PID.TID 0000.0001) %MON g__dynstat_g_salt_max        =   0.0000000000000E+00
(PID.TID 0000.0001) %MON g__dynstat_g_salt_min        =   0.0000000000000E+00
(PID.TID 0000.0001) %MON g__dynstat_g_salt_mean       =   0.0000000000000E+00
(PID.TID 0000.0001) %MON g__dynstat_g_salt_sd         =   0.0000000000000E+00
(PID.TID 0000.0001) %MON g__dynstat_g_salt_del2       =   0.0000000000000E+00
(PID.TID 0000.0001) %MON g__dynstat_g_sst_max         =   0.0000000000000E+00
(PID.TID 0000.0001) %MON g__dynstat_g_sst_min         =   0.0000000000000E+00
(PID.TID 0000.0001) %MON g__dynstat_g_sst_mean        =   0.0000000000000E+00
(PID.TID 0000.0001) %MON g__dynstat_g_sst_sd          =   0.0000000000000E+00
(PID.TID 0000.0001) %MON g__dynstat_g_sst_del2        =   0.0000000000000E+00
(PID.TID 0000.0001) %MON g__dynstat_g_sss_max         =   0.0000000000000E+00
(PID.TID 0000.0001) %MON g__dynstat_g_sss_min         =   0.0000000000000E+00
(PID.TID 0000.0001) %MON g__dynstat_g_sss_mean        =   0.0000000000000E+00
(PID.TID 0000.0001) %MON g__dynstat_g_sss_sd          =   0.0000000000000E+00
(PID.TID 0000.0001) %MON g__dynstat_g_sss_del2        =   0.0000000000000E+00
(PID.TID 0000.0001) %MON g__extforcing_g_qnet_max     =   0.0000000000000E+00
(PID.TID 0000.0001) %MON g__extforcing_g_qnet_min     =   0.0000000000000E+00
(PID.TID 0000.0001) %MON g__extforcing_g_qnet_mean    =   0.0000000000000E+00
(PID.TID 0000.0001) %MON g__extforcing_g_qnet_sd      =   0.0000000000000E+00
(PID.TID 0000.0001) %MON g__extforcing_g_qnet_del2    =   0.0000000000000E+00
(PID.TID 0000.0001) %MON g__extforcing_g_empmr_max    =   0.0000000000000E+00
(PID.TID 0000.0001) %MON g__extforcing_g_empmr_min    =   0.0000000000000E+00
(PID.TID 0000.0001) %MON g__extforcing_g_empmr_mean   =   0.0000000000000E+00
(PID.TID 0000.0001) %MON g__extforcing_g_empmr_sd     =   0.0000000000000E+00
(PID.TID 0000.0001) %MON g__extforcing_g_empmr_del2   =   0.0000000000000E+00
(PID.TID 0000.0001) %MON g__extforcing_g_fu_max       =   0.0000000000000E+00
(PID.TID 0000.0001) %MON g__extforcing_g_fu_min       =   0.0000000000000E+00
(PID.TID 0000.0001) %MON g__extforcing_g_fu_mean      =   0.0000000000000E+00
(PID.TID 0000.0001) %MON g__extforcing_g_fu_sd        =   0.0000000000000E+00
(PID.TID 0000.0001) %MON g__extforcing_g_fu_del2      =   0.0000000000000E+00
(PID.TID 0000.0001) %MON g__extforcing_g_fv_max       =   0.0000000000000E+00
(PID.TID 0000.0001) %MON g__extforcing_g_fv_min       =   0.0000000000000E+00
(PID.TID 0000.0001) %MON g__extforcing_g_fv_mean      =   0.0000000000000E+00
(PID.TID 0000.0001) %MON g__extforcing_g_fv_sd        =   0.0000000000000E+00
(PID.TID 0000.0001) %MON g__extforcing_g_fv_del2      =   0.0000000000000E+00
(PID.TID 0000.0001) %MON g__g_vcfl_g_uvel_max         =   0.0000000000000E+00
(PID.TID 0000.0001) %MON g__g_vcfl_g_vvel_max         =   0.0000000000000E+00
(PID.TID 0000.0001) %MON g__g_vcfl_g_wvel_max         =   0.0000000000000E+00
(PID.TID 0000.0001) %MON g__g_vcfl_g_W_hf_max         =   0.0000000000000E+00
(PID.TID 0000.0001) // =======================================================
(PID.TID 0000.0001) // End MONITOR dynamic field statistics
(PID.TID 0000.0001) // =======================================================
 cg2d: Sum(rhs),rhsMax =   0.00000000000000E+00  0.00000000000000E+00
 cg2d: Sum(rhs),rhsMax =   3.09212377924695E-12  7.89125112328965E+00
(PID.TID 0000.0001) // =======================================================
(PID.TID 0000.0001) // Begin MONITOR dynamic field statistics
(PID.TID 0000.0001) // =======================================================
(PID.TID 0000.0001) %MON g__time_tsnumber             =                    90
(PID.TID 0000.0001) %MON g__time_secondsf             =   3.8880000000000E+06
(PID.TID 0000.0001) %MON g__dynstat_g_eta_max         =   0.0000000000000E+00
(PID.TID 0000.0001) %MON g__dynstat_g_eta_min         =   0.0000000000000E+00
(PID.TID 0000.0001) %MON g__dynstat_g_eta_mean        =   0.0000000000000E+00
(PID.TID 0000.0001) %MON g__dynstat_g_eta_sd          =   0.0000000000000E+00
(PID.TID 0000.0001) %MON g__dynstat_g_eta_del2        =   0.0000000000000E+00
(PID.TID 0000.0001) %MON g__dynstat_g_uvel_max        =   0.0000000000000E+00
(PID.TID 0000.0001) %MON g__dynstat_g_uvel_min        =   0.0000000000000E+00
(PID.TID 0000.0001) %MON g__dynstat_g_uvel_mean       =   0.0000000000000E+00
(PID.TID 0000.0001) %MON g__dynstat_g_uvel_sd         =   0.0000000000000E+00
(PID.TID 0000.0001) %MON g__dynstat_g_uvel_del2       =   0.0000000000000E+00
(PID.TID 0000.0001) %MON g__dynstat_g_vvel_max        =   0.0000000000000E+00
(PID.TID 0000.0001) %MON g__dynstat_g_vvel_min        =   0.0000000000000E+00
(PID.TID 0000.0001) %MON g__dynstat_g_vvel_mean       =   0.0000000000000E+00
(PID.TID 0000.0001) %MON g__dynstat_g_vvel_sd         =   0.0000000000000E+00
(PID.TID 0000.0001) %MON g__dynstat_g_vvel_del2       =   0.0000000000000E+00
(PID.TID 0000.0001) %MON g__dynstat_g_wvel_max        =   0.0000000000000E+00
(PID.TID 0000.0001) %MON g__dynstat_g_wvel_min        =   0.0000000000000E+00
(PID.TID 0000.0001) %MON g__dynstat_g_wvel_mean       =   0.0000000000000E+00
(PID.TID 0000.0001) %MON g__dynstat_g_wvel_sd         =   0.0000000000000E+00
(PID.TID 0000.0001) %MON g__dynstat_g_wvel_del2       =   0.0000000000000E+00
(PID.TID 0000.0001) %MON g__dynstat_g_theta_max       =   0.0000000000000E+00
(PID.TID 0000.0001) %MON g__dynstat_g_theta_min       =   0.0000000000000E+00
(PID.TID 0000.0001) %MON g__dynstat_g_theta_mean      =   0.0000000000000E+00
(PID.TID 0000.0001) %MON g__dynstat_g_theta_sd        =   0.0000000000000E+00
(PID.TID 0000.0001) %MON g__dynstat_g_theta_del2      =   0.0000000000000E+00
(PID.TID 0000.0001) %MON g__dynstat_g_salt_max        =   0.0000000000000E+00
(PID.TID 0000.0001) %MON g__dynstat_g_salt_min        =   0.0000000000000E+00
(PID.TID 0000.0001) %MON g__dynstat_g_salt_mean       =   0.0000000000000E+00
(PID.TID 0000.0001) %MON g__dynstat_g_salt_sd         =   0.0000000000000E+00
(PID.TID 0000.0001) %MON g__dynstat_g_salt_del2       =   0.0000000000000E+00
(PID.TID 0000.0001) %MON g__dynstat_g_sst_max         =   0.0000000000000E+00
(PID.TID 0000.0001) %MON g__dynstat_g_sst_min         =   0.0000000000000E+00
(PID.TID 0000.0001) %MON g__dynstat_g_sst_mean        =   0.0000000000000E+00
(PID.TID 0000.0001) %MON g__dynstat_g_sst_sd          =   0.0000000000000E+00
(PID.TID 0000.0001) %MON g__dynstat_g_sst_del2        =   0.0000000000000E+00
(PID.TID 0000.0001) %MON g__dynstat_g_sss_max         =   0.0000000000000E+00
(PID.TID 0000.0001) %MON g__dynstat_g_sss_min         =   0.0000000000000E+00
(PID.TID 0000.0001) %MON g__dynstat_g_sss_mean        =   0.0000000000000E+00
(PID.TID 0000.0001) %MON g__dynstat_g_sss_sd          =   0.0000000000000E+00
(PID.TID 0000.0001) %MON g__dynstat_g_sss_del2        =   0.0000000000000E+00
(PID.TID 0000.0001) %MON g__extforcing_g_qnet_max     =   0.0000000000000E+00
(PID.TID 0000.0001) %MON g__extforcing_g_qnet_min     =   0.0000000000000E+00
(PID.TID 0000.0001) %MON g__extforcing_g_qnet_mean    =   0.0000000000000E+00
(PID.TID 0000.0001) %MON g__extforcing_g_qnet_sd      =   0.0000000000000E+00
(PID.TID 0000.0001) %MON g__extforcing_g_qnet_del2    =   0.0000000000000E+00
(PID.TID 0000.0001) %MON g__extforcing_g_empmr_max    =   0.0000000000000E+00
(PID.TID 0000.0001) %MON g__extforcing_g_empmr_min    =   0.0000000000000E+00
(PID.TID 0000.0001) %MON g__extforcing_g_empmr_mean   =   0.0000000000000E+00
(PID.TID 0000.0001) %MON g__extforcing_g_empmr_sd     =   0.0000000000000E+00
(PID.TID 0000.0001) %MON g__extforcing_g_empmr_del2   =   0.0000000000000E+00
(PID.TID 0000.0001) %MON g__extforcing_g_fu_max       =   0.0000000000000E+00
(PID.TID 0000.0001) %MON g__extforcing_g_fu_min       =   0.0000000000000E+00
(PID.TID 0000.0001) %MON g__extforcing_g_fu_mean      =   0.0000000000000E+00
(PID.TID 0000.0001) %MON g__extforcing_g_fu_sd        =   0.0000000000000E+00
(PID.TID 0000.0001) %MON g__extforcing_g_fu_del2      =   0.0000000000000E+00
(PID.TID 0000.0001) %MON g__extforcing_g_fv_max       =   0.0000000000000E+00
(PID.TID 0000.0001) %MON g__extforcing_g_fv_min       =   0.0000000000000E+00
(PID.TID 0000.0001) %MON g__extforcing_g_fv_mean      =   0.0000000000000E+00
(PID.TID 0000.0001) %MON g__extforcing_g_fv_sd        =   0.0000000000000E+00
(PID.TID 0000.0001) %MON g__extforcing_g_fv_del2      =   0.0000000000000E+00
(PID.TID 0000.0001) %MON g__g_vcfl_g_uvel_max         =   0.0000000000000E+00
(PID.TID 0000.0001) %MON g__g_vcfl_g_vvel_max         =   0.0000000000000E+00
(PID.TID 0000.0001) %MON g__g_vcfl_g_wvel_max         =   0.0000000000000E+00
(PID.TID 0000.0001) %MON g__g_vcfl_g_W_hf_max         =   0.0000000000000E+00
(PID.TID 0000.0001) // =======================================================
(PID.TID 0000.0001) // End MONITOR dynamic field statistics
(PID.TID 0000.0001) // =======================================================
(PID.TID 0000.0001)  MDSREADFIELD: opening global file: trenberth_taux.bin
(PID.TID 0000.0001)  MDSREADFIELD: opening global file: trenberth_taux.bin
(PID.TID 0000.0001)  MDSREADFIELD: opening global file: trenberth_tauy.bin
(PID.TID 0000.0001)  MDSREADFIELD: opening global file: trenberth_tauy.bin
(PID.TID 0000.0001)  MDSREADFIELD: opening global file: ncep_qnet.bin
(PID.TID 0000.0001)  MDSREADFIELD: opening global file: ncep_qnet.bin
(PID.TID 0000.0001)  MDSREADFIELD: opening global file: lev_sst.bin
(PID.TID 0000.0001)  MDSREADFIELD: opening global file: lev_sst.bin
(PID.TID 0000.0001)  MDSREADFIELD: opening global file: lev_sss.bin
(PID.TID 0000.0001)  MDSREADFIELD: opening global file: lev_sss.bin
 myIter=  90
(PID.TID 0000.0001) // Model state written, timestep        90
(PID.TID 0000.0001) 
 cg2d: Sum(rhs),rhsMax =   0.00000000000000E+00  0.00000000000000E+00
 cg2d: Sum(rhs),rhsMax =   4.95717356052694E-12  7.88464116714749E+00
(PID.TID 0000.0001) // =======================================================
(PID.TID 0000.0001) // Begin MONITOR dynamic field statistics
(PID.TID 0000.0001) // =======================================================
(PID.TID 0000.0001) %MON g__time_tsnumber             =                    91
(PID.TID 0000.0001) %MON g__time_secondsf             =   3.9312000000000E+06
(PID.TID 0000.0001) %MON g__dynstat_g_eta_max         =   0.0000000000000E+00
(PID.TID 0000.0001) %MON g__dynstat_g_eta_min         =   0.0000000000000E+00
(PID.TID 0000.0001) %MON g__dynstat_g_eta_mean        =   0.0000000000000E+00
(PID.TID 0000.0001) %MON g__dynstat_g_eta_sd          =   0.0000000000000E+00
(PID.TID 0000.0001) %MON g__dynstat_g_eta_del2        =   0.0000000000000E+00
(PID.TID 0000.0001) %MON g__dynstat_g_uvel_max        =   0.0000000000000E+00
(PID.TID 0000.0001) %MON g__dynstat_g_uvel_min        =   0.0000000000000E+00
(PID.TID 0000.0001) %MON g__dynstat_g_uvel_mean       =   0.0000000000000E+00
(PID.TID 0000.0001) %MON g__dynstat_g_uvel_sd         =   0.0000000000000E+00
(PID.TID 0000.0001) %MON g__dynstat_g_uvel_del2       =   0.0000000000000E+00
(PID.TID 0000.0001) %MON g__dynstat_g_vvel_max        =   0.0000000000000E+00
(PID.TID 0000.0001) %MON g__dynstat_g_vvel_min        =   0.0000000000000E+00
(PID.TID 0000.0001) %MON g__dynstat_g_vvel_mean       =   0.0000000000000E+00
(PID.TID 0000.0001) %MON g__dynstat_g_vvel_sd         =   0.0000000000000E+00
(PID.TID 0000.0001) %MON g__dynstat_g_vvel_del2       =   0.0000000000000E+00
(PID.TID 0000.0001) %MON g__dynstat_g_wvel_max        =   0.0000000000000E+00
(PID.TID 0000.0001) %MON g__dynstat_g_wvel_min        =   0.0000000000000E+00
(PID.TID 0000.0001) %MON g__dynstat_g_wvel_mean       =   0.0000000000000E+00
(PID.TID 0000.0001) %MON g__dynstat_g_wvel_sd         =   0.0000000000000E+00
(PID.TID 0000.0001) %MON g__dynstat_g_wvel_del2       =   0.0000000000000E+00
(PID.TID 0000.0001) %MON g__dynstat_g_theta_max       =   0.0000000000000E+00
(PID.TID 0000.0001) %MON g__dynstat_g_theta_min       =   0.0000000000000E+00
(PID.TID 0000.0001) %MON g__dynstat_g_theta_mean      =   0.0000000000000E+00
(PID.TID 0000.0001) %MON g__dynstat_g_theta_sd        =   0.0000000000000E+00
(PID.TID 0000.0001) %MON g__dynstat_g_theta_del2      =   0.0000000000000E+00
(PID.TID 0000.0001) %MON g__dynstat_g_salt_max        =   0.0000000000000E+00
(PID.TID 0000.0001) %MON g__dynstat_g_salt_min        =   0.0000000000000E+00
(PID.TID 0000.0001) %MON g__dynstat_g_salt_mean       =   0.0000000000000E+00
(PID.TID 0000.0001) %MON g__dynstat_g_salt_sd         =   0.0000000000000E+00
(PID.TID 0000.0001) %MON g__dynstat_g_salt_del2       =   0.0000000000000E+00
(PID.TID 0000.0001) %MON g__dynstat_g_sst_max         =   0.0000000000000E+00
(PID.TID 0000.0001) %MON g__dynstat_g_sst_min         =   0.0000000000000E+00
(PID.TID 0000.0001) %MON g__dynstat_g_sst_mean        =   0.0000000000000E+00
(PID.TID 0000.0001) %MON g__dynstat_g_sst_sd          =   0.0000000000000E+00
(PID.TID 0000.0001) %MON g__dynstat_g_sst_del2        =   0.0000000000000E+00
(PID.TID 0000.0001) %MON g__dynstat_g_sss_max         =   0.0000000000000E+00
(PID.TID 0000.0001) %MON g__dynstat_g_sss_min         =   0.0000000000000E+00
(PID.TID 0000.0001) %MON g__dynstat_g_sss_mean        =   0.0000000000000E+00
(PID.TID 0000.0001) %MON g__dynstat_g_sss_sd          =   0.0000000000000E+00
(PID.TID 0000.0001) %MON g__dynstat_g_sss_del2        =   0.0000000000000E+00
(PID.TID 0000.0001) %MON g__extforcing_g_qnet_max     =   0.0000000000000E+00
(PID.TID 0000.0001) %MON g__extforcing_g_qnet_min     =   0.0000000000000E+00
(PID.TID 0000.0001) %MON g__extforcing_g_qnet_mean    =   0.0000000000000E+00
(PID.TID 0000.0001) %MON g__extforcing_g_qnet_sd      =   0.0000000000000E+00
(PID.TID 0000.0001) %MON g__extforcing_g_qnet_del2    =   0.0000000000000E+00
(PID.TID 0000.0001) %MON g__extforcing_g_empmr_max    =   0.0000000000000E+00
(PID.TID 0000.0001) %MON g__extforcing_g_empmr_min    =   0.0000000000000E+00
(PID.TID 0000.0001) %MON g__extforcing_g_empmr_mean   =   0.0000000000000E+00
(PID.TID 0000.0001) %MON g__extforcing_g_empmr_sd     =   0.0000000000000E+00
(PID.TID 0000.0001) %MON g__extforcing_g_empmr_del2   =   0.0000000000000E+00
(PID.TID 0000.0001) %MON g__extforcing_g_fu_max       =   0.0000000000000E+00
(PID.TID 0000.0001) %MON g__extforcing_g_fu_min       =   0.0000000000000E+00
(PID.TID 0000.0001) %MON g__extforcing_g_fu_mean      =   0.0000000000000E+00
(PID.TID 0000.0001) %MON g__extforcing_g_fu_sd        =   0.0000000000000E+00
(PID.TID 0000.0001) %MON g__extforcing_g_fu_del2      =   0.0000000000000E+00
(PID.TID 0000.0001) %MON g__extforcing_g_fv_max       =   0.0000000000000E+00
(PID.TID 0000.0001) %MON g__extforcing_g_fv_min       =   0.0000000000000E+00
(PID.TID 0000.0001) %MON g__extforcing_g_fv_mean      =   0.0000000000000E+00
(PID.TID 0000.0001) %MON g__extforcing_g_fv_sd        =   0.0000000000000E+00
(PID.TID 0000.0001) %MON g__extforcing_g_fv_del2      =   0.0000000000000E+00
(PID.TID 0000.0001) %MON g__g_vcfl_g_uvel_max         =   0.0000000000000E+00
(PID.TID 0000.0001) %MON g__g_vcfl_g_vvel_max         =   0.0000000000000E+00
(PID.TID 0000.0001) %MON g__g_vcfl_g_wvel_max         =   0.0000000000000E+00
(PID.TID 0000.0001) %MON g__g_vcfl_g_W_hf_max         =   0.0000000000000E+00
(PID.TID 0000.0001) // =======================================================
(PID.TID 0000.0001) // End MONITOR dynamic field statistics
(PID.TID 0000.0001) // =======================================================
 cg2d: Sum(rhs),rhsMax =   0.00000000000000E+00  0.00000000000000E+00
 cg2d: Sum(rhs),rhsMax =   4.15339984627394E-12  8.18557512400998E+00
(PID.TID 0000.0001) // =======================================================
(PID.TID 0000.0001) // Begin MONITOR dynamic field statistics
(PID.TID 0000.0001) // =======================================================
(PID.TID 0000.0001) %MON g__time_tsnumber             =                    92
(PID.TID 0000.0001) %MON g__time_secondsf             =   3.9744000000000E+06
(PID.TID 0000.0001) %MON g__dynstat_g_eta_max         =   0.0000000000000E+00
(PID.TID 0000.0001) %MON g__dynstat_g_eta_min         =   0.0000000000000E+00
(PID.TID 0000.0001) %MON g__dynstat_g_eta_mean        =   0.0000000000000E+00
(PID.TID 0000.0001) %MON g__dynstat_g_eta_sd          =   0.0000000000000E+00
(PID.TID 0000.0001) %MON g__dynstat_g_eta_del2        =   0.0000000000000E+00
(PID.TID 0000.0001) %MON g__dynstat_g_uvel_max        =   0.0000000000000E+00
(PID.TID 0000.0001) %MON g__dynstat_g_uvel_min        =   0.0000000000000E+00
(PID.TID 0000.0001) %MON g__dynstat_g_uvel_mean       =   0.0000000000000E+00
(PID.TID 0000.0001) %MON g__dynstat_g_uvel_sd         =   0.0000000000000E+00
(PID.TID 0000.0001) %MON g__dynstat_g_uvel_del2       =   0.0000000000000E+00
(PID.TID 0000.0001) %MON g__dynstat_g_vvel_max        =   0.0000000000000E+00
(PID.TID 0000.0001) %MON g__dynstat_g_vvel_min        =   0.0000000000000E+00
(PID.TID 0000.0001) %MON g__dynstat_g_vvel_mean       =   0.0000000000000E+00
(PID.TID 0000.0001) %MON g__dynstat_g_vvel_sd         =   0.0000000000000E+00
(PID.TID 0000.0001) %MON g__dynstat_g_vvel_del2       =   0.0000000000000E+00
(PID.TID 0000.0001) %MON g__dynstat_g_wvel_max        =   0.0000000000000E+00
(PID.TID 0000.0001) %MON g__dynstat_g_wvel_min        =   0.0000000000000E+00
(PID.TID 0000.0001) %MON g__dynstat_g_wvel_mean       =   0.0000000000000E+00
(PID.TID 0000.0001) %MON g__dynstat_g_wvel_sd         =   0.0000000000000E+00
(PID.TID 0000.0001) %MON g__dynstat_g_wvel_del2       =   0.0000000000000E+00
(PID.TID 0000.0001) %MON g__dynstat_g_theta_max       =   0.0000000000000E+00
(PID.TID 0000.0001) %MON g__dynstat_g_theta_min       =   0.0000000000000E+00
(PID.TID 0000.0001) %MON g__dynstat_g_theta_mean      =   0.0000000000000E+00
(PID.TID 0000.0001) %MON g__dynstat_g_theta_sd        =   0.0000000000000E+00
(PID.TID 0000.0001) %MON g__dynstat_g_theta_del2      =   0.0000000000000E+00
(PID.TID 0000.0001) %MON g__dynstat_g_salt_max        =   0.0000000000000E+00
(PID.TID 0000.0001) %MON g__dynstat_g_salt_min        =   0.0000000000000E+00
(PID.TID 0000.0001) %MON g__dynstat_g_salt_mean       =   0.0000000000000E+00
(PID.TID 0000.0001) %MON g__dynstat_g_salt_sd         =   0.0000000000000E+00
(PID.TID 0000.0001) %MON g__dynstat_g_salt_del2       =   0.0000000000000E+00
(PID.TID 0000.0001) %MON g__dynstat_g_sst_max         =   0.0000000000000E+00
(PID.TID 0000.0001) %MON g__dynstat_g_sst_min         =   0.0000000000000E+00
(PID.TID 0000.0001) %MON g__dynstat_g_sst_mean        =   0.0000000000000E+00
(PID.TID 0000.0001) %MON g__dynstat_g_sst_sd          =   0.0000000000000E+00
(PID.TID 0000.0001) %MON g__dynstat_g_sst_del2        =   0.0000000000000E+00
(PID.TID 0000.0001) %MON g__dynstat_g_sss_max         =   0.0000000000000E+00
(PID.TID 0000.0001) %MON g__dynstat_g_sss_min         =   0.0000000000000E+00
(PID.TID 0000.0001) %MON g__dynstat_g_sss_mean        =   0.0000000000000E+00
(PID.TID 0000.0001) %MON g__dynstat_g_sss_sd          =   0.0000000000000E+00
(PID.TID 0000.0001) %MON g__dynstat_g_sss_del2        =   0.0000000000000E+00
(PID.TID 0000.0001) %MON g__extforcing_g_qnet_max     =   0.0000000000000E+00
(PID.TID 0000.0001) %MON g__extforcing_g_qnet_min     =   0.0000000000000E+00
(PID.TID 0000.0001) %MON g__extforcing_g_qnet_mean    =   0.0000000000000E+00
(PID.TID 0000.0001) %MON g__extforcing_g_qnet_sd      =   0.0000000000000E+00
(PID.TID 0000.0001) %MON g__extforcing_g_qnet_del2    =   0.0000000000000E+00
(PID.TID 0000.0001) %MON g__extforcing_g_empmr_max    =   0.0000000000000E+00
(PID.TID 0000.0001) %MON g__extforcing_g_empmr_min    =   0.0000000000000E+00
(PID.TID 0000.0001) %MON g__extforcing_g_empmr_mean   =   0.0000000000000E+00
(PID.TID 0000.0001) %MON g__extforcing_g_empmr_sd     =   0.0000000000000E+00
(PID.TID 0000.0001) %MON g__extforcing_g_empmr_del2   =   0.0000000000000E+00
(PID.TID 0000.0001) %MON g__extforcing_g_fu_max       =   0.0000000000000E+00
(PID.TID 0000.0001) %MON g__extforcing_g_fu_min       =   0.0000000000000E+00
(PID.TID 0000.0001) %MON g__extforcing_g_fu_mean      =   0.0000000000000E+00
(PID.TID 0000.0001) %MON g__extforcing_g_fu_sd        =   0.0000000000000E+00
(PID.TID 0000.0001) %MON g__extforcing_g_fu_del2      =   0.0000000000000E+00
(PID.TID 0000.0001) %MON g__extforcing_g_fv_max       =   0.0000000000000E+00
(PID.TID 0000.0001) %MON g__extforcing_g_fv_min       =   0.0000000000000E+00
(PID.TID 0000.0001) %MON g__extforcing_g_fv_mean      =   0.0000000000000E+00
(PID.TID 0000.0001) %MON g__extforcing_g_fv_sd        =   0.0000000000000E+00
(PID.TID 0000.0001) %MON g__extforcing_g_fv_del2      =   0.0000000000000E+00
(PID.TID 0000.0001) %MON g__g_vcfl_g_uvel_max         =   0.0000000000000E+00
(PID.TID 0000.0001) %MON g__g_vcfl_g_vvel_max         =   0.0000000000000E+00
(PID.TID 0000.0001) %MON g__g_vcfl_g_wvel_max         =   0.0000000000000E+00
(PID.TID 0000.0001) %MON g__g_vcfl_g_W_hf_max         =   0.0000000000000E+00
(PID.TID 0000.0001) // =======================================================
(PID.TID 0000.0001) // End MONITOR dynamic field statistics
(PID.TID 0000.0001) // =======================================================
 cg2d: Sum(rhs),rhsMax =   0.00000000000000E+00  0.00000000000000E+00
 cg2d: Sum(rhs),rhsMax =   3.73003017362095E-12  8.65937290165752E+00
(PID.TID 0000.0001) // =======================================================
(PID.TID 0000.0001) // Begin MONITOR dynamic field statistics
(PID.TID 0000.0001) // =======================================================
(PID.TID 0000.0001) %MON g__time_tsnumber             =                    93
(PID.TID 0000.0001) %MON g__time_secondsf             =   4.0176000000000E+06
(PID.TID 0000.0001) %MON g__dynstat_g_eta_max         =   0.0000000000000E+00
(PID.TID 0000.0001) %MON g__dynstat_g_eta_min         =   0.0000000000000E+00
(PID.TID 0000.0001) %MON g__dynstat_g_eta_mean        =   0.0000000000000E+00
(PID.TID 0000.0001) %MON g__dynstat_g_eta_sd          =   0.0000000000000E+00
(PID.TID 0000.0001) %MON g__dynstat_g_eta_del2        =   0.0000000000000E+00
(PID.TID 0000.0001) %MON g__dynstat_g_uvel_max        =   0.0000000000000E+00
(PID.TID 0000.0001) %MON g__dynstat_g_uvel_min        =   0.0000000000000E+00
(PID.TID 0000.0001) %MON g__dynstat_g_uvel_mean       =   0.0000000000000E+00
(PID.TID 0000.0001) %MON g__dynstat_g_uvel_sd         =   0.0000000000000E+00
(PID.TID 0000.0001) %MON g__dynstat_g_uvel_del2       =   0.0000000000000E+00
(PID.TID 0000.0001) %MON g__dynstat_g_vvel_max        =   0.0000000000000E+00
(PID.TID 0000.0001) %MON g__dynstat_g_vvel_min        =   0.0000000000000E+00
(PID.TID 0000.0001) %MON g__dynstat_g_vvel_mean       =   0.0000000000000E+00
(PID.TID 0000.0001) %MON g__dynstat_g_vvel_sd         =   0.0000000000000E+00
(PID.TID 0000.0001) %MON g__dynstat_g_vvel_del2       =   0.0000000000000E+00
(PID.TID 0000.0001) %MON g__dynstat_g_wvel_max        =   0.0000000000000E+00
(PID.TID 0000.0001) %MON g__dynstat_g_wvel_min        =   0.0000000000000E+00
(PID.TID 0000.0001) %MON g__dynstat_g_wvel_mean       =   0.0000000000000E+00
(PID.TID 0000.0001) %MON g__dynstat_g_wvel_sd         =   0.0000000000000E+00
(PID.TID 0000.0001) %MON g__dynstat_g_wvel_del2       =   0.0000000000000E+00
(PID.TID 0000.0001) %MON g__dynstat_g_theta_max       =   0.0000000000000E+00
(PID.TID 0000.0001) %MON g__dynstat_g_theta_min       =   0.0000000000000E+00
(PID.TID 0000.0001) %MON g__dynstat_g_theta_mean      =   0.0000000000000E+00
(PID.TID 0000.0001) %MON g__dynstat_g_theta_sd        =   0.0000000000000E+00
(PID.TID 0000.0001) %MON g__dynstat_g_theta_del2      =   0.0000000000000E+00
(PID.TID 0000.0001) %MON g__dynstat_g_salt_max        =   0.0000000000000E+00
(PID.TID 0000.0001) %MON g__dynstat_g_salt_min        =   0.0000000000000E+00
(PID.TID 0000.0001) %MON g__dynstat_g_salt_mean       =   0.0000000000000E+00
(PID.TID 0000.0001) %MON g__dynstat_g_salt_sd         =   0.0000000000000E+00
(PID.TID 0000.0001) %MON g__dynstat_g_salt_del2       =   0.0000000000000E+00
(PID.TID 0000.0001) %MON g__dynstat_g_sst_max         =   0.0000000000000E+00
(PID.TID 0000.0001) %MON g__dynstat_g_sst_min         =   0.0000000000000E+00
(PID.TID 0000.0001) %MON g__dynstat_g_sst_mean        =   0.0000000000000E+00
(PID.TID 0000.0001) %MON g__dynstat_g_sst_sd          =   0.0000000000000E+00
(PID.TID 0000.0001) %MON g__dynstat_g_sst_del2        =   0.0000000000000E+00
(PID.TID 0000.0001) %MON g__dynstat_g_sss_max         =   0.0000000000000E+00
(PID.TID 0000.0001) %MON g__dynstat_g_sss_min         =   0.0000000000000E+00
(PID.TID 0000.0001) %MON g__dynstat_g_sss_mean        =   0.0000000000000E+00
(PID.TID 0000.0001) %MON g__dynstat_g_sss_sd          =   0.0000000000000E+00
(PID.TID 0000.0001) %MON g__dynstat_g_sss_del2        =   0.0000000000000E+00
(PID.TID 0000.0001) %MON g__extforcing_g_qnet_max     =   0.0000000000000E+00
(PID.TID 0000.0001) %MON g__extforcing_g_qnet_min     =   0.0000000000000E+00
(PID.TID 0000.0001) %MON g__extforcing_g_qnet_mean    =   0.0000000000000E+00
(PID.TID 0000.0001) %MON g__extforcing_g_qnet_sd      =   0.0000000000000E+00
(PID.TID 0000.0001) %MON g__extforcing_g_qnet_del2    =   0.0000000000000E+00
(PID.TID 0000.0001) %MON g__extforcing_g_empmr_max    =   0.0000000000000E+00
(PID.TID 0000.0001) %MON g__extforcing_g_empmr_min    =   0.0000000000000E+00
(PID.TID 0000.0001) %MON g__extforcing_g_empmr_mean   =   0.0000000000000E+00
(PID.TID 0000.0001) %MON g__extforcing_g_empmr_sd     =   0.0000000000000E+00
(PID.TID 0000.0001) %MON g__extforcing_g_empmr_del2   =   0.0000000000000E+00
(PID.TID 0000.0001) %MON g__extforcing_g_fu_max       =   0.0000000000000E+00
(PID.TID 0000.0001) %MON g__extforcing_g_fu_min       =   0.0000000000000E+00
(PID.TID 0000.0001) %MON g__extforcing_g_fu_mean      =   0.0000000000000E+00
(PID.TID 0000.0001) %MON g__extforcing_g_fu_sd        =   0.0000000000000E+00
(PID.TID 0000.0001) %MON g__extforcing_g_fu_del2      =   0.0000000000000E+00
(PID.TID 0000.0001) %MON g__extforcing_g_fv_max       =   0.0000000000000E+00
(PID.TID 0000.0001) %MON g__extforcing_g_fv_min       =   0.0000000000000E+00
(PID.TID 0000.0001) %MON g__extforcing_g_fv_mean      =   0.0000000000000E+00
(PID.TID 0000.0001) %MON g__extforcing_g_fv_sd        =   0.0000000000000E+00
(PID.TID 0000.0001) %MON g__extforcing_g_fv_del2      =   0.0000000000000E+00
(PID.TID 0000.0001) %MON g__g_vcfl_g_uvel_max         =   0.0000000000000E+00
(PID.TID 0000.0001) %MON g__g_vcfl_g_vvel_max         =   0.0000000000000E+00
(PID.TID 0000.0001) %MON g__g_vcfl_g_wvel_max         =   0.0000000000000E+00
(PID.TID 0000.0001) %MON g__g_vcfl_g_W_hf_max         =   0.0000000000000E+00
(PID.TID 0000.0001) // =======================================================
(PID.TID 0000.0001) // End MONITOR dynamic field statistics
(PID.TID 0000.0001) // =======================================================
 cg2d: Sum(rhs),rhsMax =   0.00000000000000E+00  0.00000000000000E+00
 cg2d: Sum(rhs),rhsMax =   3.47395723299115E-12  9.08149159275096E+00
(PID.TID 0000.0001) // =======================================================
(PID.TID 0000.0001) // Begin MONITOR dynamic field statistics
(PID.TID 0000.0001) // =======================================================
(PID.TID 0000.0001) %MON g__time_tsnumber             =                    94
(PID.TID 0000.0001) %MON g__time_secondsf             =   4.0608000000000E+06
(PID.TID 0000.0001) %MON g__dynstat_g_eta_max         =   0.0000000000000E+00
(PID.TID 0000.0001) %MON g__dynstat_g_eta_min         =   0.0000000000000E+00
(PID.TID 0000.0001) %MON g__dynstat_g_eta_mean        =   0.0000000000000E+00
(PID.TID 0000.0001) %MON g__dynstat_g_eta_sd          =   0.0000000000000E+00
(PID.TID 0000.0001) %MON g__dynstat_g_eta_del2        =   0.0000000000000E+00
(PID.TID 0000.0001) %MON g__dynstat_g_uvel_max        =   0.0000000000000E+00
(PID.TID 0000.0001) %MON g__dynstat_g_uvel_min        =   0.0000000000000E+00
(PID.TID 0000.0001) %MON g__dynstat_g_uvel_mean       =   0.0000000000000E+00
(PID.TID 0000.0001) %MON g__dynstat_g_uvel_sd         =   0.0000000000000E+00
(PID.TID 0000.0001) %MON g__dynstat_g_uvel_del2       =   0.0000000000000E+00
(PID.TID 0000.0001) %MON g__dynstat_g_vvel_max        =   0.0000000000000E+00
(PID.TID 0000.0001) %MON g__dynstat_g_vvel_min        =   0.0000000000000E+00
(PID.TID 0000.0001) %MON g__dynstat_g_vvel_mean       =   0.0000000000000E+00
(PID.TID 0000.0001) %MON g__dynstat_g_vvel_sd         =   0.0000000000000E+00
(PID.TID 0000.0001) %MON g__dynstat_g_vvel_del2       =   0.0000000000000E+00
(PID.TID 0000.0001) %MON g__dynstat_g_wvel_max        =   0.0000000000000E+00
(PID.TID 0000.0001) %MON g__dynstat_g_wvel_min        =   0.0000000000000E+00
(PID.TID 0000.0001) %MON g__dynstat_g_wvel_mean       =   0.0000000000000E+00
(PID.TID 0000.0001) %MON g__dynstat_g_wvel_sd         =   0.0000000000000E+00
(PID.TID 0000.0001) %MON g__dynstat_g_wvel_del2       =   0.0000000000000E+00
(PID.TID 0000.0001) %MON g__dynstat_g_theta_max       =   0.0000000000000E+00
(PID.TID 0000.0001) %MON g__dynstat_g_theta_min       =   0.0000000000000E+00
(PID.TID 0000.0001) %MON g__dynstat_g_theta_mean      =   0.0000000000000E+00
(PID.TID 0000.0001) %MON g__dynstat_g_theta_sd        =   0.0000000000000E+00
(PID.TID 0000.0001) %MON g__dynstat_g_theta_del2      =   0.0000000000000E+00
(PID.TID 0000.0001) %MON g__dynstat_g_salt_max        =   0.0000000000000E+00
(PID.TID 0000.0001) %MON g__dynstat_g_salt_min        =   0.0000000000000E+00
(PID.TID 0000.0001) %MON g__dynstat_g_salt_mean       =   0.0000000000000E+00
(PID.TID 0000.0001) %MON g__dynstat_g_salt_sd         =   0.0000000000000E+00
(PID.TID 0000.0001) %MON g__dynstat_g_salt_del2       =   0.0000000000000E+00
(PID.TID 0000.0001) %MON g__dynstat_g_sst_max         =   0.0000000000000E+00
(PID.TID 0000.0001) %MON g__dynstat_g_sst_min         =   0.0000000000000E+00
(PID.TID 0000.0001) %MON g__dynstat_g_sst_mean        =   0.0000000000000E+00
(PID.TID 0000.0001) %MON g__dynstat_g_sst_sd          =   0.0000000000000E+00
(PID.TID 0000.0001) %MON g__dynstat_g_sst_del2        =   0.0000000000000E+00
(PID.TID 0000.0001) %MON g__dynstat_g_sss_max         =   0.0000000000000E+00
(PID.TID 0000.0001) %MON g__dynstat_g_sss_min         =   0.0000000000000E+00
(PID.TID 0000.0001) %MON g__dynstat_g_sss_mean        =   0.0000000000000E+00
(PID.TID 0000.0001) %MON g__dynstat_g_sss_sd          =   0.0000000000000E+00
(PID.TID 0000.0001) %MON g__dynstat_g_sss_del2        =   0.0000000000000E+00
(PID.TID 0000.0001) %MON g__extforcing_g_qnet_max     =   0.0000000000000E+00
(PID.TID 0000.0001) %MON g__extforcing_g_qnet_min     =   0.0000000000000E+00
(PID.TID 0000.0001) %MON g__extforcing_g_qnet_mean    =   0.0000000000000E+00
(PID.TID 0000.0001) %MON g__extforcing_g_qnet_sd      =   0.0000000000000E+00
(PID.TID 0000.0001) %MON g__extforcing_g_qnet_del2    =   0.0000000000000E+00
(PID.TID 0000.0001) %MON g__extforcing_g_empmr_max    =   0.0000000000000E+00
(PID.TID 0000.0001) %MON g__extforcing_g_empmr_min    =   0.0000000000000E+00
(PID.TID 0000.0001) %MON g__extforcing_g_empmr_mean   =   0.0000000000000E+00
(PID.TID 0000.0001) %MON g__extforcing_g_empmr_sd     =   0.0000000000000E+00
(PID.TID 0000.0001) %MON g__extforcing_g_empmr_del2   =   0.0000000000000E+00
(PID.TID 0000.0001) %MON g__extforcing_g_fu_max       =   0.0000000000000E+00
(PID.TID 0000.0001) %MON g__extforcing_g_fu_min       =   0.0000000000000E+00
(PID.TID 0000.0001) %MON g__extforcing_g_fu_mean      =   0.0000000000000E+00
(PID.TID 0000.0001) %MON g__extforcing_g_fu_sd        =   0.0000000000000E+00
(PID.TID 0000.0001) %MON g__extforcing_g_fu_del2      =   0.0000000000000E+00
(PID.TID 0000.0001) %MON g__extforcing_g_fv_max       =   0.0000000000000E+00
(PID.TID 0000.0001) %MON g__extforcing_g_fv_min       =   0.0000000000000E+00
(PID.TID 0000.0001) %MON g__extforcing_g_fv_mean      =   0.0000000000000E+00
(PID.TID 0000.0001) %MON g__extforcing_g_fv_sd        =   0.0000000000000E+00
(PID.TID 0000.0001) %MON g__extforcing_g_fv_del2      =   0.0000000000000E+00
(PID.TID 0000.0001) %MON g__g_vcfl_g_uvel_max         =   0.0000000000000E+00
(PID.TID 0000.0001) %MON g__g_vcfl_g_vvel_max         =   0.0000000000000E+00
(PID.TID 0000.0001) %MON g__g_vcfl_g_wvel_max         =   0.0000000000000E+00
(PID.TID 0000.0001) %MON g__g_vcfl_g_W_hf_max         =   0.0000000000000E+00
(PID.TID 0000.0001) // =======================================================
(PID.TID 0000.0001) // End MONITOR dynamic field statistics
(PID.TID 0000.0001) // =======================================================
 cg2d: Sum(rhs),rhsMax =   0.00000000000000E+00  0.00000000000000E+00
 cg2d: Sum(rhs),rhsMax =   2.86847628983011E-12  9.44424370111450E+00
(PID.TID 0000.0001) // =======================================================
(PID.TID 0000.0001) // Begin MONITOR dynamic field statistics
(PID.TID 0000.0001) // =======================================================
(PID.TID 0000.0001) %MON g__time_tsnumber             =                    95
(PID.TID 0000.0001) %MON g__time_secondsf             =   4.1040000000000E+06
(PID.TID 0000.0001) %MON g__dynstat_g_eta_max         =   0.0000000000000E+00
(PID.TID 0000.0001) %MON g__dynstat_g_eta_min         =   0.0000000000000E+00
(PID.TID 0000.0001) %MON g__dynstat_g_eta_mean        =   0.0000000000000E+00
(PID.TID 0000.0001) %MON g__dynstat_g_eta_sd          =   0.0000000000000E+00
(PID.TID 0000.0001) %MON g__dynstat_g_eta_del2        =   0.0000000000000E+00
(PID.TID 0000.0001) %MON g__dynstat_g_uvel_max        =   0.0000000000000E+00
(PID.TID 0000.0001) %MON g__dynstat_g_uvel_min        =   0.0000000000000E+00
(PID.TID 0000.0001) %MON g__dynstat_g_uvel_mean       =   0.0000000000000E+00
(PID.TID 0000.0001) %MON g__dynstat_g_uvel_sd         =   0.0000000000000E+00
(PID.TID 0000.0001) %MON g__dynstat_g_uvel_del2       =   0.0000000000000E+00
(PID.TID 0000.0001) %MON g__dynstat_g_vvel_max        =   0.0000000000000E+00
(PID.TID 0000.0001) %MON g__dynstat_g_vvel_min        =   0.0000000000000E+00
(PID.TID 0000.0001) %MON g__dynstat_g_vvel_mean       =   0.0000000000000E+00
(PID.TID 0000.0001) %MON g__dynstat_g_vvel_sd         =   0.0000000000000E+00
(PID.TID 0000.0001) %MON g__dynstat_g_vvel_del2       =   0.0000000000000E+00
(PID.TID 0000.0001) %MON g__dynstat_g_wvel_max        =   0.0000000000000E+00
(PID.TID 0000.0001) %MON g__dynstat_g_wvel_min        =   0.0000000000000E+00
(PID.TID 0000.0001) %MON g__dynstat_g_wvel_mean       =   0.0000000000000E+00
(PID.TID 0000.0001) %MON g__dynstat_g_wvel_sd         =   0.0000000000000E+00
(PID.TID 0000.0001) %MON g__dynstat_g_wvel_del2       =   0.0000000000000E+00
(PID.TID 0000.0001) %MON g__dynstat_g_theta_max       =   0.0000000000000E+00
(PID.TID 0000.0001) %MON g__dynstat_g_theta_min       =   0.0000000000000E+00
(PID.TID 0000.0001) %MON g__dynstat_g_theta_mean      =   0.0000000000000E+00
(PID.TID 0000.0001) %MON g__dynstat_g_theta_sd        =   0.0000000000000E+00
(PID.TID 0000.0001) %MON g__dynstat_g_theta_del2      =   0.0000000000000E+00
(PID.TID 0000.0001) %MON g__dynstat_g_salt_max        =   0.0000000000000E+00
(PID.TID 0000.0001) %MON g__dynstat_g_salt_min        =   0.0000000000000E+00
(PID.TID 0000.0001) %MON g__dynstat_g_salt_mean       =   0.0000000000000E+00
(PID.TID 0000.0001) %MON g__dynstat_g_salt_sd         =   0.0000000000000E+00
(PID.TID 0000.0001) %MON g__dynstat_g_salt_del2       =   0.0000000000000E+00
(PID.TID 0000.0001) %MON g__dynstat_g_sst_max         =   0.0000000000000E+00
(PID.TID 0000.0001) %MON g__dynstat_g_sst_min         =   0.0000000000000E+00
(PID.TID 0000.0001) %MON g__dynstat_g_sst_mean        =   0.0000000000000E+00
(PID.TID 0000.0001) %MON g__dynstat_g_sst_sd          =   0.0000000000000E+00
(PID.TID 0000.0001) %MON g__dynstat_g_sst_del2        =   0.0000000000000E+00
(PID.TID 0000.0001) %MON g__dynstat_g_sss_max         =   0.0000000000000E+00
(PID.TID 0000.0001) %MON g__dynstat_g_sss_min         =   0.0000000000000E+00
(PID.TID 0000.0001) %MON g__dynstat_g_sss_mean        =   0.0000000000000E+00
(PID.TID 0000.0001) %MON g__dynstat_g_sss_sd          =   0.0000000000000E+00
(PID.TID 0000.0001) %MON g__dynstat_g_sss_del2        =   0.0000000000000E+00
(PID.TID 0000.0001) %MON g__extforcing_g_qnet_max     =   0.0000000000000E+00
(PID.TID 0000.0001) %MON g__extforcing_g_qnet_min     =   0.0000000000000E+00
(PID.TID 0000.0001) %MON g__extforcing_g_qnet_mean    =   0.0000000000000E+00
(PID.TID 0000.0001) %MON g__extforcing_g_qnet_sd      =   0.0000000000000E+00
(PID.TID 0000.0001) %MON g__extforcing_g_qnet_del2    =   0.0000000000000E+00
(PID.TID 0000.0001) %MON g__extforcing_g_empmr_max    =   0.0000000000000E+00
(PID.TID 0000.0001) %MON g__extforcing_g_empmr_min    =   0.0000000000000E+00
(PID.TID 0000.0001) %MON g__extforcing_g_empmr_mean   =   0.0000000000000E+00
(PID.TID 0000.0001) %MON g__extforcing_g_empmr_sd     =   0.0000000000000E+00
(PID.TID 0000.0001) %MON g__extforcing_g_empmr_del2   =   0.0000000000000E+00
(PID.TID 0000.0001) %MON g__extforcing_g_fu_max       =   0.0000000000000E+00
(PID.TID 0000.0001) %MON g__extforcing_g_fu_min       =   0.0000000000000E+00
(PID.TID 0000.0001) %MON g__extforcing_g_fu_mean      =   0.0000000000000E+00
(PID.TID 0000.0001) %MON g__extforcing_g_fu_sd        =   0.0000000000000E+00
(PID.TID 0000.0001) %MON g__extforcing_g_fu_del2      =   0.0000000000000E+00
(PID.TID 0000.0001) %MON g__extforcing_g_fv_max       =   0.0000000000000E+00
(PID.TID 0000.0001) %MON g__extforcing_g_fv_min       =   0.0000000000000E+00
(PID.TID 0000.0001) %MON g__extforcing_g_fv_mean      =   0.0000000000000E+00
(PID.TID 0000.0001) %MON g__extforcing_g_fv_sd        =   0.0000000000000E+00
(PID.TID 0000.0001) %MON g__extforcing_g_fv_del2      =   0.0000000000000E+00
(PID.TID 0000.0001) %MON g__g_vcfl_g_uvel_max         =   0.0000000000000E+00
(PID.TID 0000.0001) %MON g__g_vcfl_g_vvel_max         =   0.0000000000000E+00
(PID.TID 0000.0001) %MON g__g_vcfl_g_wvel_max         =   0.0000000000000E+00
(PID.TID 0000.0001) %MON g__g_vcfl_g_W_hf_max         =   0.0000000000000E+00
(PID.TID 0000.0001) // =======================================================
(PID.TID 0000.0001) // End MONITOR dynamic field statistics
(PID.TID 0000.0001) // =======================================================
 cg2d: Sum(rhs),rhsMax =   0.00000000000000E+00  0.00000000000000E+00
 cg2d: Sum(rhs),rhsMax =   3.05269698408495E-12  9.74175914288520E+00
(PID.TID 0000.0001) // =======================================================
(PID.TID 0000.0001) // Begin MONITOR dynamic field statistics
(PID.TID 0000.0001) // =======================================================
(PID.TID 0000.0001) %MON g__time_tsnumber             =                    96
(PID.TID 0000.0001) %MON g__time_secondsf             =   4.1472000000000E+06
(PID.TID 0000.0001) %MON g__dynstat_g_eta_max         =   0.0000000000000E+00
(PID.TID 0000.0001) %MON g__dynstat_g_eta_min         =   0.0000000000000E+00
(PID.TID 0000.0001) %MON g__dynstat_g_eta_mean        =   0.0000000000000E+00
(PID.TID 0000.0001) %MON g__dynstat_g_eta_sd          =   0.0000000000000E+00
(PID.TID 0000.0001) %MON g__dynstat_g_eta_del2        =   0.0000000000000E+00
(PID.TID 0000.0001) %MON g__dynstat_g_uvel_max        =   0.0000000000000E+00
(PID.TID 0000.0001) %MON g__dynstat_g_uvel_min        =   0.0000000000000E+00
(PID.TID 0000.0001) %MON g__dynstat_g_uvel_mean       =   0.0000000000000E+00
(PID.TID 0000.0001) %MON g__dynstat_g_uvel_sd         =   0.0000000000000E+00
(PID.TID 0000.0001) %MON g__dynstat_g_uvel_del2       =   0.0000000000000E+00
(PID.TID 0000.0001) %MON g__dynstat_g_vvel_max        =   0.0000000000000E+00
(PID.TID 0000.0001) %MON g__dynstat_g_vvel_min        =   0.0000000000000E+00
(PID.TID 0000.0001) %MON g__dynstat_g_vvel_mean       =   0.0000000000000E+00
(PID.TID 0000.0001) %MON g__dynstat_g_vvel_sd         =   0.0000000000000E+00
(PID.TID 0000.0001) %MON g__dynstat_g_vvel_del2       =   0.0000000000000E+00
(PID.TID 0000.0001) %MON g__dynstat_g_wvel_max        =   0.0000000000000E+00
(PID.TID 0000.0001) %MON g__dynstat_g_wvel_min        =   0.0000000000000E+00
(PID.TID 0000.0001) %MON g__dynstat_g_wvel_mean       =   0.0000000000000E+00
(PID.TID 0000.0001) %MON g__dynstat_g_wvel_sd         =   0.0000000000000E+00
(PID.TID 0000.0001) %MON g__dynstat_g_wvel_del2       =   0.0000000000000E+00
(PID.TID 0000.0001) %MON g__dynstat_g_theta_max       =   0.0000000000000E+00
(PID.TID 0000.0001) %MON g__dynstat_g_theta_min       =   0.0000000000000E+00
(PID.TID 0000.0001) %MON g__dynstat_g_theta_mean      =   0.0000000000000E+00
(PID.TID 0000.0001) %MON g__dynstat_g_theta_sd        =   0.0000000000000E+00
(PID.TID 0000.0001) %MON g__dynstat_g_theta_del2      =   0.0000000000000E+00
(PID.TID 0000.0001) %MON g__dynstat_g_salt_max        =   0.0000000000000E+00
(PID.TID 0000.0001) %MON g__dynstat_g_salt_min        =   0.0000000000000E+00
(PID.TID 0000.0001) %MON g__dynstat_g_salt_mean       =   0.0000000000000E+00
(PID.TID 0000.0001) %MON g__dynstat_g_salt_sd         =   0.0000000000000E+00
(PID.TID 0000.0001) %MON g__dynstat_g_salt_del2       =   0.0000000000000E+00
(PID.TID 0000.0001) %MON g__dynstat_g_sst_max         =   0.0000000000000E+00
(PID.TID 0000.0001) %MON g__dynstat_g_sst_min         =   0.0000000000000E+00
(PID.TID 0000.0001) %MON g__dynstat_g_sst_mean        =   0.0000000000000E+00
(PID.TID 0000.0001) %MON g__dynstat_g_sst_sd          =   0.0000000000000E+00
(PID.TID 0000.0001) %MON g__dynstat_g_sst_del2        =   0.0000000000000E+00
(PID.TID 0000.0001) %MON g__dynstat_g_sss_max         =   0.0000000000000E+00
(PID.TID 0000.0001) %MON g__dynstat_g_sss_min         =   0.0000000000000E+00
(PID.TID 0000.0001) %MON g__dynstat_g_sss_mean        =   0.0000000000000E+00
(PID.TID 0000.0001) %MON g__dynstat_g_sss_sd          =   0.0000000000000E+00
(PID.TID 0000.0001) %MON g__dynstat_g_sss_del2        =   0.0000000000000E+00
(PID.TID 0000.0001) %MON g__extforcing_g_qnet_max     =   0.0000000000000E+00
(PID.TID 0000.0001) %MON g__extforcing_g_qnet_min     =   0.0000000000000E+00
(PID.TID 0000.0001) %MON g__extforcing_g_qnet_mean    =   0.0000000000000E+00
(PID.TID 0000.0001) %MON g__extforcing_g_qnet_sd      =   0.0000000000000E+00
(PID.TID 0000.0001) %MON g__extforcing_g_qnet_del2    =   0.0000000000000E+00
(PID.TID 0000.0001) %MON g__extforcing_g_empmr_max    =   0.0000000000000E+00
(PID.TID 0000.0001) %MON g__extforcing_g_empmr_min    =   0.0000000000000E+00
(PID.TID 0000.0001) %MON g__extforcing_g_empmr_mean   =   0.0000000000000E+00
(PID.TID 0000.0001) %MON g__extforcing_g_empmr_sd     =   0.0000000000000E+00
(PID.TID 0000.0001) %MON g__extforcing_g_empmr_del2   =   0.0000000000000E+00
(PID.TID 0000.0001) %MON g__extforcing_g_fu_max       =   0.0000000000000E+00
(PID.TID 0000.0001) %MON g__extforcing_g_fu_min       =   0.0000000000000E+00
(PID.TID 0000.0001) %MON g__extforcing_g_fu_mean      =   0.0000000000000E+00
(PID.TID 0000.0001) %MON g__extforcing_g_fu_sd        =   0.0000000000000E+00
(PID.TID 0000.0001) %MON g__extforcing_g_fu_del2      =   0.0000000000000E+00
(PID.TID 0000.0001) %MON g__extforcing_g_fv_max       =   0.0000000000000E+00
(PID.TID 0000.0001) %MON g__extforcing_g_fv_min       =   0.0000000000000E+00
(PID.TID 0000.0001) %MON g__extforcing_g_fv_mean      =   0.0000000000000E+00
(PID.TID 0000.0001) %MON g__extforcing_g_fv_sd        =   0.0000000000000E+00
(PID.TID 0000.0001) %MON g__extforcing_g_fv_del2      =   0.0000000000000E+00
(PID.TID 0000.0001) %MON g__g_vcfl_g_uvel_max         =   0.0000000000000E+00
(PID.TID 0000.0001) %MON g__g_vcfl_g_vvel_max         =   0.0000000000000E+00
(PID.TID 0000.0001) %MON g__g_vcfl_g_wvel_max         =   0.0000000000000E+00
(PID.TID 0000.0001) %MON g__g_vcfl_g_W_hf_max         =   0.0000000000000E+00
(PID.TID 0000.0001) // =======================================================
(PID.TID 0000.0001) // End MONITOR dynamic field statistics
(PID.TID 0000.0001) // =======================================================
 cg2d: Sum(rhs),rhsMax =   0.00000000000000E+00  0.00000000000000E+00
 cg2d: Sum(rhs),rhsMax =   2.91269786067971E-12  9.97004063040943E+00
(PID.TID 0000.0001) // =======================================================
(PID.TID 0000.0001) // Begin MONITOR dynamic field statistics
(PID.TID 0000.0001) // =======================================================
(PID.TID 0000.0001) %MON g__time_tsnumber             =                    97
(PID.TID 0000.0001) %MON g__time_secondsf             =   4.1904000000000E+06
(PID.TID 0000.0001) %MON g__dynstat_g_eta_max         =   0.0000000000000E+00
(PID.TID 0000.0001) %MON g__dynstat_g_eta_min         =   0.0000000000000E+00
(PID.TID 0000.0001) %MON g__dynstat_g_eta_mean        =   0.0000000000000E+00
(PID.TID 0000.0001) %MON g__dynstat_g_eta_sd          =   0.0000000000000E+00
(PID.TID 0000.0001) %MON g__dynstat_g_eta_del2        =   0.0000000000000E+00
(PID.TID 0000.0001) %MON g__dynstat_g_uvel_max        =   0.0000000000000E+00
(PID.TID 0000.0001) %MON g__dynstat_g_uvel_min        =   0.0000000000000E+00
(PID.TID 0000.0001) %MON g__dynstat_g_uvel_mean       =   0.0000000000000E+00
(PID.TID 0000.0001) %MON g__dynstat_g_uvel_sd         =   0.0000000000000E+00
(PID.TID 0000.0001) %MON g__dynstat_g_uvel_del2       =   0.0000000000000E+00
(PID.TID 0000.0001) %MON g__dynstat_g_vvel_max        =   0.0000000000000E+00
(PID.TID 0000.0001) %MON g__dynstat_g_vvel_min        =   0.0000000000000E+00
(PID.TID 0000.0001) %MON g__dynstat_g_vvel_mean       =   0.0000000000000E+00
(PID.TID 0000.0001) %MON g__dynstat_g_vvel_sd         =   0.0000000000000E+00
(PID.TID 0000.0001) %MON g__dynstat_g_vvel_del2       =   0.0000000000000E+00
(PID.TID 0000.0001) %MON g__dynstat_g_wvel_max        =   0.0000000000000E+00
(PID.TID 0000.0001) %MON g__dynstat_g_wvel_min        =   0.0000000000000E+00
(PID.TID 0000.0001) %MON g__dynstat_g_wvel_mean       =   0.0000000000000E+00
(PID.TID 0000.0001) %MON g__dynstat_g_wvel_sd         =   0.0000000000000E+00
(PID.TID 0000.0001) %MON g__dynstat_g_wvel_del2       =   0.0000000000000E+00
(PID.TID 0000.0001) %MON g__dynstat_g_theta_max       =   0.0000000000000E+00
(PID.TID 0000.0001) %MON g__dynstat_g_theta_min       =   0.0000000000000E+00
(PID.TID 0000.0001) %MON g__dynstat_g_theta_mean      =   0.0000000000000E+00
(PID.TID 0000.0001) %MON g__dynstat_g_theta_sd        =   0.0000000000000E+00
(PID.TID 0000.0001) %MON g__dynstat_g_theta_del2      =   0.0000000000000E+00
(PID.TID 0000.0001) %MON g__dynstat_g_salt_max        =   0.0000000000000E+00
(PID.TID 0000.0001) %MON g__dynstat_g_salt_min        =   0.0000000000000E+00
(PID.TID 0000.0001) %MON g__dynstat_g_salt_mean       =   0.0000000000000E+00
(PID.TID 0000.0001) %MON g__dynstat_g_salt_sd         =   0.0000000000000E+00
(PID.TID 0000.0001) %MON g__dynstat_g_salt_del2       =   0.0000000000000E+00
(PID.TID 0000.0001) %MON g__dynstat_g_sst_max         =   0.0000000000000E+00
(PID.TID 0000.0001) %MON g__dynstat_g_sst_min         =   0.0000000000000E+00
(PID.TID 0000.0001) %MON g__dynstat_g_sst_mean        =   0.0000000000000E+00
(PID.TID 0000.0001) %MON g__dynstat_g_sst_sd          =   0.0000000000000E+00
(PID.TID 0000.0001) %MON g__dynstat_g_sst_del2        =   0.0000000000000E+00
(PID.TID 0000.0001) %MON g__dynstat_g_sss_max         =   0.0000000000000E+00
(PID.TID 0000.0001) %MON g__dynstat_g_sss_min         =   0.0000000000000E+00
(PID.TID 0000.0001) %MON g__dynstat_g_sss_mean        =   0.0000000000000E+00
(PID.TID 0000.0001) %MON g__dynstat_g_sss_sd          =   0.0000000000000E+00
(PID.TID 0000.0001) %MON g__dynstat_g_sss_del2        =   0.0000000000000E+00
(PID.TID 0000.0001) %MON g__extforcing_g_qnet_max     =   0.0000000000000E+00
(PID.TID 0000.0001) %MON g__extforcing_g_qnet_min     =   0.0000000000000E+00
(PID.TID 0000.0001) %MON g__extforcing_g_qnet_mean    =   0.0000000000000E+00
(PID.TID 0000.0001) %MON g__extforcing_g_qnet_sd      =   0.0000000000000E+00
(PID.TID 0000.0001) %MON g__extforcing_g_qnet_del2    =   0.0000000000000E+00
(PID.TID 0000.0001) %MON g__extforcing_g_empmr_max    =   0.0000000000000E+00
(PID.TID 0000.0001) %MON g__extforcing_g_empmr_min    =   0.0000000000000E+00
(PID.TID 0000.0001) %MON g__extforcing_g_empmr_mean   =   0.0000000000000E+00
(PID.TID 0000.0001) %MON g__extforcing_g_empmr_sd     =   0.0000000000000E+00
(PID.TID 0000.0001) %MON g__extforcing_g_empmr_del2   =   0.0000000000000E+00
(PID.TID 0000.0001) %MON g__extforcing_g_fu_max       =   0.0000000000000E+00
(PID.TID 0000.0001) %MON g__extforcing_g_fu_min       =   0.0000000000000E+00
(PID.TID 0000.0001) %MON g__extforcing_g_fu_mean      =   0.0000000000000E+00
(PID.TID 0000.0001) %MON g__extforcing_g_fu_sd        =   0.0000000000000E+00
(PID.TID 0000.0001) %MON g__extforcing_g_fu_del2      =   0.0000000000000E+00
(PID.TID 0000.0001) %MON g__extforcing_g_fv_max       =   0.0000000000000E+00
(PID.TID 0000.0001) %MON g__extforcing_g_fv_min       =   0.0000000000000E+00
(PID.TID 0000.0001) %MON g__extforcing_g_fv_mean      =   0.0000000000000E+00
(PID.TID 0000.0001) %MON g__extforcing_g_fv_sd        =   0.0000000000000E+00
(PID.TID 0000.0001) %MON g__extforcing_g_fv_del2      =   0.0000000000000E+00
(PID.TID 0000.0001) %MON g__g_vcfl_g_uvel_max         =   0.0000000000000E+00
(PID.TID 0000.0001) %MON g__g_vcfl_g_vvel_max         =   0.0000000000000E+00
(PID.TID 0000.0001) %MON g__g_vcfl_g_wvel_max         =   0.0000000000000E+00
(PID.TID 0000.0001) %MON g__g_vcfl_g_W_hf_max         =   0.0000000000000E+00
(PID.TID 0000.0001) // =======================================================
(PID.TID 0000.0001) // End MONITOR dynamic field statistics
(PID.TID 0000.0001) // =======================================================
 cg2d: Sum(rhs),rhsMax =   0.00000000000000E+00  0.00000000000000E+00
 cg2d: Sum(rhs),rhsMax =   3.26926680171979E-12  1.01269749889254E+01
(PID.TID 0000.0001) // =======================================================
(PID.TID 0000.0001) // Begin MONITOR dynamic field statistics
(PID.TID 0000.0001) // =======================================================
(PID.TID 0000.0001) %MON g__time_tsnumber             =                    98
(PID.TID 0000.0001) %MON g__time_secondsf             =   4.2336000000000E+06
(PID.TID 0000.0001) %MON g__dynstat_g_eta_max         =   0.0000000000000E+00
(PID.TID 0000.0001) %MON g__dynstat_g_eta_min         =   0.0000000000000E+00
(PID.TID 0000.0001) %MON g__dynstat_g_eta_mean        =   0.0000000000000E+00
(PID.TID 0000.0001) %MON g__dynstat_g_eta_sd          =   0.0000000000000E+00
(PID.TID 0000.0001) %MON g__dynstat_g_eta_del2        =   0.0000000000000E+00
(PID.TID 0000.0001) %MON g__dynstat_g_uvel_max        =   0.0000000000000E+00
(PID.TID 0000.0001) %MON g__dynstat_g_uvel_min        =   0.0000000000000E+00
(PID.TID 0000.0001) %MON g__dynstat_g_uvel_mean       =   0.0000000000000E+00
(PID.TID 0000.0001) %MON g__dynstat_g_uvel_sd         =   0.0000000000000E+00
(PID.TID 0000.0001) %MON g__dynstat_g_uvel_del2       =   0.0000000000000E+00
(PID.TID 0000.0001) %MON g__dynstat_g_vvel_max        =   0.0000000000000E+00
(PID.TID 0000.0001) %MON g__dynstat_g_vvel_min        =   0.0000000000000E+00
(PID.TID 0000.0001) %MON g__dynstat_g_vvel_mean       =   0.0000000000000E+00
(PID.TID 0000.0001) %MON g__dynstat_g_vvel_sd         =   0.0000000000000E+00
(PID.TID 0000.0001) %MON g__dynstat_g_vvel_del2       =   0.0000000000000E+00
(PID.TID 0000.0001) %MON g__dynstat_g_wvel_max        =   0.0000000000000E+00
(PID.TID 0000.0001) %MON g__dynstat_g_wvel_min        =   0.0000000000000E+00
(PID.TID 0000.0001) %MON g__dynstat_g_wvel_mean       =   0.0000000000000E+00
(PID.TID 0000.0001) %MON g__dynstat_g_wvel_sd         =   0.0000000000000E+00
(PID.TID 0000.0001) %MON g__dynstat_g_wvel_del2       =   0.0000000000000E+00
(PID.TID 0000.0001) %MON g__dynstat_g_theta_max       =   0.0000000000000E+00
(PID.TID 0000.0001) %MON g__dynstat_g_theta_min       =   0.0000000000000E+00
(PID.TID 0000.0001) %MON g__dynstat_g_theta_mean      =   0.0000000000000E+00
(PID.TID 0000.0001) %MON g__dynstat_g_theta_sd        =   0.0000000000000E+00
(PID.TID 0000.0001) %MON g__dynstat_g_theta_del2      =   0.0000000000000E+00
(PID.TID 0000.0001) %MON g__dynstat_g_salt_max        =   0.0000000000000E+00
(PID.TID 0000.0001) %MON g__dynstat_g_salt_min        =   0.0000000000000E+00
(PID.TID 0000.0001) %MON g__dynstat_g_salt_mean       =   0.0000000000000E+00
(PID.TID 0000.0001) %MON g__dynstat_g_salt_sd         =   0.0000000000000E+00
(PID.TID 0000.0001) %MON g__dynstat_g_salt_del2       =   0.0000000000000E+00
(PID.TID 0000.0001) %MON g__dynstat_g_sst_max         =   0.0000000000000E+00
(PID.TID 0000.0001) %MON g__dynstat_g_sst_min         =   0.0000000000000E+00
(PID.TID 0000.0001) %MON g__dynstat_g_sst_mean        =   0.0000000000000E+00
(PID.TID 0000.0001) %MON g__dynstat_g_sst_sd          =   0.0000000000000E+00
(PID.TID 0000.0001) %MON g__dynstat_g_sst_del2        =   0.0000000000000E+00
(PID.TID 0000.0001) %MON g__dynstat_g_sss_max         =   0.0000000000000E+00
(PID.TID 0000.0001) %MON g__dynstat_g_sss_min         =   0.0000000000000E+00
(PID.TID 0000.0001) %MON g__dynstat_g_sss_mean        =   0.0000000000000E+00
(PID.TID 0000.0001) %MON g__dynstat_g_sss_sd          =   0.0000000000000E+00
(PID.TID 0000.0001) %MON g__dynstat_g_sss_del2        =   0.0000000000000E+00
(PID.TID 0000.0001) %MON g__extforcing_g_qnet_max     =   0.0000000000000E+00
(PID.TID 0000.0001) %MON g__extforcing_g_qnet_min     =   0.0000000000000E+00
(PID.TID 0000.0001) %MON g__extforcing_g_qnet_mean    =   0.0000000000000E+00
(PID.TID 0000.0001) %MON g__extforcing_g_qnet_sd      =   0.0000000000000E+00
(PID.TID 0000.0001) %MON g__extforcing_g_qnet_del2    =   0.0000000000000E+00
(PID.TID 0000.0001) %MON g__extforcing_g_empmr_max    =   0.0000000000000E+00
(PID.TID 0000.0001) %MON g__extforcing_g_empmr_min    =   0.0000000000000E+00
(PID.TID 0000.0001) %MON g__extforcing_g_empmr_mean   =   0.0000000000000E+00
(PID.TID 0000.0001) %MON g__extforcing_g_empmr_sd     =   0.0000000000000E+00
(PID.TID 0000.0001) %MON g__extforcing_g_empmr_del2   =   0.0000000000000E+00
(PID.TID 0000.0001) %MON g__extforcing_g_fu_max       =   0.0000000000000E+00
(PID.TID 0000.0001) %MON g__extforcing_g_fu_min       =   0.0000000000000E+00
(PID.TID 0000.0001) %MON g__extforcing_g_fu_mean      =   0.0000000000000E+00
(PID.TID 0000.0001) %MON g__extforcing_g_fu_sd        =   0.0000000000000E+00
(PID.TID 0000.0001) %MON g__extforcing_g_fu_del2      =   0.0000000000000E+00
(PID.TID 0000.0001) %MON g__extforcing_g_fv_max       =   0.0000000000000E+00
(PID.TID 0000.0001) %MON g__extforcing_g_fv_min       =   0.0000000000000E+00
(PID.TID 0000.0001) %MON g__extforcing_g_fv_mean      =   0.0000000000000E+00
(PID.TID 0000.0001) %MON g__extforcing_g_fv_sd        =   0.0000000000000E+00
(PID.TID 0000.0001) %MON g__extforcing_g_fv_del2      =   0.0000000000000E+00
(PID.TID 0000.0001) %MON g__g_vcfl_g_uvel_max         =   0.0000000000000E+00
(PID.TID 0000.0001) %MON g__g_vcfl_g_vvel_max         =   0.0000000000000E+00
(PID.TID 0000.0001) %MON g__g_vcfl_g_wvel_max         =   0.0000000000000E+00
(PID.TID 0000.0001) %MON g__g_vcfl_g_W_hf_max         =   0.0000000000000E+00
(PID.TID 0000.0001) // =======================================================
(PID.TID 0000.0001) // End MONITOR dynamic field statistics
(PID.TID 0000.0001) // =======================================================
 cg2d: Sum(rhs),rhsMax =   0.00000000000000E+00  0.00000000000000E+00
 cg2d: Sum(rhs),rhsMax =   3.03563424397524E-12  1.02123013095249E+01
(PID.TID 0000.0001) // =======================================================
(PID.TID 0000.0001) // Begin MONITOR dynamic field statistics
(PID.TID 0000.0001) // =======================================================
(PID.TID 0000.0001) %MON g__time_tsnumber             =                    99
(PID.TID 0000.0001) %MON g__time_secondsf             =   4.2768000000000E+06
(PID.TID 0000.0001) %MON g__dynstat_g_eta_max         =   0.0000000000000E+00
(PID.TID 0000.0001) %MON g__dynstat_g_eta_min         =   0.0000000000000E+00
(PID.TID 0000.0001) %MON g__dynstat_g_eta_mean        =   0.0000000000000E+00
(PID.TID 0000.0001) %MON g__dynstat_g_eta_sd          =   0.0000000000000E+00
(PID.TID 0000.0001) %MON g__dynstat_g_eta_del2        =   0.0000000000000E+00
(PID.TID 0000.0001) %MON g__dynstat_g_uvel_max        =   0.0000000000000E+00
(PID.TID 0000.0001) %MON g__dynstat_g_uvel_min        =   0.0000000000000E+00
(PID.TID 0000.0001) %MON g__dynstat_g_uvel_mean       =   0.0000000000000E+00
(PID.TID 0000.0001) %MON g__dynstat_g_uvel_sd         =   0.0000000000000E+00
(PID.TID 0000.0001) %MON g__dynstat_g_uvel_del2       =   0.0000000000000E+00
(PID.TID 0000.0001) %MON g__dynstat_g_vvel_max        =   0.0000000000000E+00
(PID.TID 0000.0001) %MON g__dynstat_g_vvel_min        =   0.0000000000000E+00
(PID.TID 0000.0001) %MON g__dynstat_g_vvel_mean       =   0.0000000000000E+00
(PID.TID 0000.0001) %MON g__dynstat_g_vvel_sd         =   0.0000000000000E+00
(PID.TID 0000.0001) %MON g__dynstat_g_vvel_del2       =   0.0000000000000E+00
(PID.TID 0000.0001) %MON g__dynstat_g_wvel_max        =   0.0000000000000E+00
(PID.TID 0000.0001) %MON g__dynstat_g_wvel_min        =   0.0000000000000E+00
(PID.TID 0000.0001) %MON g__dynstat_g_wvel_mean       =   0.0000000000000E+00
(PID.TID 0000.0001) %MON g__dynstat_g_wvel_sd         =   0.0000000000000E+00
(PID.TID 0000.0001) %MON g__dynstat_g_wvel_del2       =   0.0000000000000E+00
(PID.TID 0000.0001) %MON g__dynstat_g_theta_max       =   0.0000000000000E+00
(PID.TID 0000.0001) %MON g__dynstat_g_theta_min       =   0.0000000000000E+00
(PID.TID 0000.0001) %MON g__dynstat_g_theta_mean      =   0.0000000000000E+00
(PID.TID 0000.0001) %MON g__dynstat_g_theta_sd        =   0.0000000000000E+00
(PID.TID 0000.0001) %MON g__dynstat_g_theta_del2      =   0.0000000000000E+00
(PID.TID 0000.0001) %MON g__dynstat_g_salt_max        =   0.0000000000000E+00
(PID.TID 0000.0001) %MON g__dynstat_g_salt_min        =   0.0000000000000E+00
(PID.TID 0000.0001) %MON g__dynstat_g_salt_mean       =   0.0000000000000E+00
(PID.TID 0000.0001) %MON g__dynstat_g_salt_sd         =   0.0000000000000E+00
(PID.TID 0000.0001) %MON g__dynstat_g_salt_del2       =   0.0000000000000E+00
(PID.TID 0000.0001) %MON g__dynstat_g_sst_max         =   0.0000000000000E+00
(PID.TID 0000.0001) %MON g__dynstat_g_sst_min         =   0.0000000000000E+00
(PID.TID 0000.0001) %MON g__dynstat_g_sst_mean        =   0.0000000000000E+00
(PID.TID 0000.0001) %MON g__dynstat_g_sst_sd          =   0.0000000000000E+00
(PID.TID 0000.0001) %MON g__dynstat_g_sst_del2        =   0.0000000000000E+00
(PID.TID 0000.0001) %MON g__dynstat_g_sss_max         =   0.0000000000000E+00
(PID.TID 0000.0001) %MON g__dynstat_g_sss_min         =   0.0000000000000E+00
(PID.TID 0000.0001) %MON g__dynstat_g_sss_mean        =   0.0000000000000E+00
(PID.TID 0000.0001) %MON g__dynstat_g_sss_sd          =   0.0000000000000E+00
(PID.TID 0000.0001) %MON g__dynstat_g_sss_del2        =   0.0000000000000E+00
(PID.TID 0000.0001) %MON g__extforcing_g_qnet_max     =   0.0000000000000E+00
(PID.TID 0000.0001) %MON g__extforcing_g_qnet_min     =   0.0000000000000E+00
(PID.TID 0000.0001) %MON g__extforcing_g_qnet_mean    =   0.0000000000000E+00
(PID.TID 0000.0001) %MON g__extforcing_g_qnet_sd      =   0.0000000000000E+00
(PID.TID 0000.0001) %MON g__extforcing_g_qnet_del2    =   0.0000000000000E+00
(PID.TID 0000.0001) %MON g__extforcing_g_empmr_max    =   0.0000000000000E+00
(PID.TID 0000.0001) %MON g__extforcing_g_empmr_min    =   0.0000000000000E+00
(PID.TID 0000.0001) %MON g__extforcing_g_empmr_mean   =   0.0000000000000E+00
(PID.TID 0000.0001) %MON g__extforcing_g_empmr_sd     =   0.0000000000000E+00
(PID.TID 0000.0001) %MON g__extforcing_g_empmr_del2   =   0.0000000000000E+00
(PID.TID 0000.0001) %MON g__extforcing_g_fu_max       =   0.0000000000000E+00
(PID.TID 0000.0001) %MON g__extforcing_g_fu_min       =   0.0000000000000E+00
(PID.TID 0000.0001) %MON g__extforcing_g_fu_mean      =   0.0000000000000E+00
(PID.TID 0000.0001) %MON g__extforcing_g_fu_sd        =   0.0000000000000E+00
(PID.TID 0000.0001) %MON g__extforcing_g_fu_del2      =   0.0000000000000E+00
(PID.TID 0000.0001) %MON g__extforcing_g_fv_max       =   0.0000000000000E+00
(PID.TID 0000.0001) %MON g__extforcing_g_fv_min       =   0.0000000000000E+00
(PID.TID 0000.0001) %MON g__extforcing_g_fv_mean      =   0.0000000000000E+00
(PID.TID 0000.0001) %MON g__extforcing_g_fv_sd        =   0.0000000000000E+00
(PID.TID 0000.0001) %MON g__extforcing_g_fv_del2      =   0.0000000000000E+00
(PID.TID 0000.0001) %MON g__g_vcfl_g_uvel_max         =   0.0000000000000E+00
(PID.TID 0000.0001) %MON g__g_vcfl_g_vvel_max         =   0.0000000000000E+00
(PID.TID 0000.0001) %MON g__g_vcfl_g_wvel_max         =   0.0000000000000E+00
(PID.TID 0000.0001) %MON g__g_vcfl_g_W_hf_max         =   0.0000000000000E+00
(PID.TID 0000.0001) // =======================================================
(PID.TID 0000.0001) // End MONITOR dynamic field statistics
(PID.TID 0000.0001) // =======================================================
 cg2d: Sum(rhs),rhsMax =   0.00000000000000E+00  0.00000000000000E+00
 cg2d: Sum(rhs),rhsMax =   2.62610072576663E-12  1.02275375580449E+01
(PID.TID 0000.0001) // =======================================================
(PID.TID 0000.0001) // Begin MONITOR dynamic field statistics
(PID.TID 0000.0001) // =======================================================
(PID.TID 0000.0001) %MON g__time_tsnumber             =                   100
(PID.TID 0000.0001) %MON g__time_secondsf             =   4.3200000000000E+06
(PID.TID 0000.0001) %MON g__dynstat_g_eta_max         =   0.0000000000000E+00
(PID.TID 0000.0001) %MON g__dynstat_g_eta_min         =   0.0000000000000E+00
(PID.TID 0000.0001) %MON g__dynstat_g_eta_mean        =   0.0000000000000E+00
(PID.TID 0000.0001) %MON g__dynstat_g_eta_sd          =   0.0000000000000E+00
(PID.TID 0000.0001) %MON g__dynstat_g_eta_del2        =   0.0000000000000E+00
(PID.TID 0000.0001) %MON g__dynstat_g_uvel_max        =   0.0000000000000E+00
(PID.TID 0000.0001) %MON g__dynstat_g_uvel_min        =   0.0000000000000E+00
(PID.TID 0000.0001) %MON g__dynstat_g_uvel_mean       =   0.0000000000000E+00
(PID.TID 0000.0001) %MON g__dynstat_g_uvel_sd         =   0.0000000000000E+00
(PID.TID 0000.0001) %MON g__dynstat_g_uvel_del2       =   0.0000000000000E+00
(PID.TID 0000.0001) %MON g__dynstat_g_vvel_max        =   0.0000000000000E+00
(PID.TID 0000.0001) %MON g__dynstat_g_vvel_min        =   0.0000000000000E+00
(PID.TID 0000.0001) %MON g__dynstat_g_vvel_mean       =   0.0000000000000E+00
(PID.TID 0000.0001) %MON g__dynstat_g_vvel_sd         =   0.0000000000000E+00
(PID.TID 0000.0001) %MON g__dynstat_g_vvel_del2       =   0.0000000000000E+00
(PID.TID 0000.0001) %MON g__dynstat_g_wvel_max        =   0.0000000000000E+00
(PID.TID 0000.0001) %MON g__dynstat_g_wvel_min        =   0.0000000000000E+00
(PID.TID 0000.0001) %MON g__dynstat_g_wvel_mean       =   0.0000000000000E+00
(PID.TID 0000.0001) %MON g__dynstat_g_wvel_sd         =   0.0000000000000E+00
(PID.TID 0000.0001) %MON g__dynstat_g_wvel_del2       =   0.0000000000000E+00
(PID.TID 0000.0001) %MON g__dynstat_g_theta_max       =   0.0000000000000E+00
(PID.TID 0000.0001) %MON g__dynstat_g_theta_min       =   0.0000000000000E+00
(PID.TID 0000.0001) %MON g__dynstat_g_theta_mean      =   0.0000000000000E+00
(PID.TID 0000.0001) %MON g__dynstat_g_theta_sd        =   0.0000000000000E+00
(PID.TID 0000.0001) %MON g__dynstat_g_theta_del2      =   0.0000000000000E+00
(PID.TID 0000.0001) %MON g__dynstat_g_salt_max        =   0.0000000000000E+00
(PID.TID 0000.0001) %MON g__dynstat_g_salt_min        =   0.0000000000000E+00
(PID.TID 0000.0001) %MON g__dynstat_g_salt_mean       =   0.0000000000000E+00
(PID.TID 0000.0001) %MON g__dynstat_g_salt_sd         =   0.0000000000000E+00
(PID.TID 0000.0001) %MON g__dynstat_g_salt_del2       =   0.0000000000000E+00
(PID.TID 0000.0001) %MON g__dynstat_g_sst_max         =   0.0000000000000E+00
(PID.TID 0000.0001) %MON g__dynstat_g_sst_min         =   0.0000000000000E+00
(PID.TID 0000.0001) %MON g__dynstat_g_sst_mean        =   0.0000000000000E+00
(PID.TID 0000.0001) %MON g__dynstat_g_sst_sd          =   0.0000000000000E+00
(PID.TID 0000.0001) %MON g__dynstat_g_sst_del2        =   0.0000000000000E+00
(PID.TID 0000.0001) %MON g__dynstat_g_sss_max         =   0.0000000000000E+00
(PID.TID 0000.0001) %MON g__dynstat_g_sss_min         =   0.0000000000000E+00
(PID.TID 0000.0001) %MON g__dynstat_g_sss_mean        =   0.0000000000000E+00
(PID.TID 0000.0001) %MON g__dynstat_g_sss_sd          =   0.0000000000000E+00
(PID.TID 0000.0001) %MON g__dynstat_g_sss_del2        =   0.0000000000000E+00
(PID.TID 0000.0001) %MON g__extforcing_g_qnet_max     =   0.0000000000000E+00
(PID.TID 0000.0001) %MON g__extforcing_g_qnet_min     =   0.0000000000000E+00
(PID.TID 0000.0001) %MON g__extforcing_g_qnet_mean    =   0.0000000000000E+00
(PID.TID 0000.0001) %MON g__extforcing_g_qnet_sd      =   0.0000000000000E+00
(PID.TID 0000.0001) %MON g__extforcing_g_qnet_del2    =   0.0000000000000E+00
(PID.TID 0000.0001) %MON g__extforcing_g_empmr_max    =   0.0000000000000E+00
(PID.TID 0000.0001) %MON g__extforcing_g_empmr_min    =   0.0000000000000E+00
(PID.TID 0000.0001) %MON g__extforcing_g_empmr_mean   =   0.0000000000000E+00
(PID.TID 0000.0001) %MON g__extforcing_g_empmr_sd     =   0.0000000000000E+00
(PID.TID 0000.0001) %MON g__extforcing_g_empmr_del2   =   0.0000000000000E+00
(PID.TID 0000.0001) %MON g__extforcing_g_fu_max       =   0.0000000000000E+00
(PID.TID 0000.0001) %MON g__extforcing_g_fu_min       =   0.0000000000000E+00
(PID.TID 0000.0001) %MON g__extforcing_g_fu_mean      =   0.0000000000000E+00
(PID.TID 0000.0001) %MON g__extforcing_g_fu_sd        =   0.0000000000000E+00
(PID.TID 0000.0001) %MON g__extforcing_g_fu_del2      =   0.0000000000000E+00
(PID.TID 0000.0001) %MON g__extforcing_g_fv_max       =   0.0000000000000E+00
(PID.TID 0000.0001) %MON g__extforcing_g_fv_min       =   0.0000000000000E+00
(PID.TID 0000.0001) %MON g__extforcing_g_fv_mean      =   0.0000000000000E+00
(PID.TID 0000.0001) %MON g__extforcing_g_fv_sd        =   0.0000000000000E+00
(PID.TID 0000.0001) %MON g__extforcing_g_fv_del2      =   0.0000000000000E+00
(PID.TID 0000.0001) %MON g__g_vcfl_g_uvel_max         =   0.0000000000000E+00
(PID.TID 0000.0001) %MON g__g_vcfl_g_vvel_max         =   0.0000000000000E+00
(PID.TID 0000.0001) %MON g__g_vcfl_g_wvel_max         =   0.0000000000000E+00
(PID.TID 0000.0001) %MON g__g_vcfl_g_W_hf_max         =   0.0000000000000E+00
(PID.TID 0000.0001) // =======================================================
(PID.TID 0000.0001) // End MONITOR dynamic field statistics
(PID.TID 0000.0001) // =======================================================
 myIter=  100
(PID.TID 0000.0001) // Model state written, timestep       100
(PID.TID 0000.0001) 
 cg2d: Sum(rhs),rhsMax =   0.00000000000000E+00  0.00000000000000E+00
 cg2d: Sum(rhs),rhsMax =   2.56973609058520E-12  1.01758680259234E+01
(PID.TID 0000.0001) // =======================================================
(PID.TID 0000.0001) // Begin MONITOR dynamic field statistics
(PID.TID 0000.0001) // =======================================================
(PID.TID 0000.0001) %MON g__time_tsnumber             =                   101
(PID.TID 0000.0001) %MON g__time_secondsf             =   4.3632000000000E+06
(PID.TID 0000.0001) %MON g__dynstat_g_eta_max         =   0.0000000000000E+00
(PID.TID 0000.0001) %MON g__dynstat_g_eta_min         =   0.0000000000000E+00
(PID.TID 0000.0001) %MON g__dynstat_g_eta_mean        =   0.0000000000000E+00
(PID.TID 0000.0001) %MON g__dynstat_g_eta_sd          =   0.0000000000000E+00
(PID.TID 0000.0001) %MON g__dynstat_g_eta_del2        =   0.0000000000000E+00
(PID.TID 0000.0001) %MON g__dynstat_g_uvel_max        =   0.0000000000000E+00
(PID.TID 0000.0001) %MON g__dynstat_g_uvel_min        =   0.0000000000000E+00
(PID.TID 0000.0001) %MON g__dynstat_g_uvel_mean       =   0.0000000000000E+00
(PID.TID 0000.0001) %MON g__dynstat_g_uvel_sd         =   0.0000000000000E+00
(PID.TID 0000.0001) %MON g__dynstat_g_uvel_del2       =   0.0000000000000E+00
(PID.TID 0000.0001) %MON g__dynstat_g_vvel_max        =   0.0000000000000E+00
(PID.TID 0000.0001) %MON g__dynstat_g_vvel_min        =   0.0000000000000E+00
(PID.TID 0000.0001) %MON g__dynstat_g_vvel_mean       =   0.0000000000000E+00
(PID.TID 0000.0001) %MON g__dynstat_g_vvel_sd         =   0.0000000000000E+00
(PID.TID 0000.0001) %MON g__dynstat_g_vvel_del2       =   0.0000000000000E+00
(PID.TID 0000.0001) %MON g__dynstat_g_wvel_max        =   0.0000000000000E+00
(PID.TID 0000.0001) %MON g__dynstat_g_wvel_min        =   0.0000000000000E+00
(PID.TID 0000.0001) %MON g__dynstat_g_wvel_mean       =   0.0000000000000E+00
(PID.TID 0000.0001) %MON g__dynstat_g_wvel_sd         =   0.0000000000000E+00
(PID.TID 0000.0001) %MON g__dynstat_g_wvel_del2       =   0.0000000000000E+00
(PID.TID 0000.0001) %MON g__dynstat_g_theta_max       =   0.0000000000000E+00
(PID.TID 0000.0001) %MON g__dynstat_g_theta_min       =   0.0000000000000E+00
(PID.TID 0000.0001) %MON g__dynstat_g_theta_mean      =   0.0000000000000E+00
(PID.TID 0000.0001) %MON g__dynstat_g_theta_sd        =   0.0000000000000E+00
(PID.TID 0000.0001) %MON g__dynstat_g_theta_del2      =   0.0000000000000E+00
(PID.TID 0000.0001) %MON g__dynstat_g_salt_max        =   0.0000000000000E+00
(PID.TID 0000.0001) %MON g__dynstat_g_salt_min        =   0.0000000000000E+00
(PID.TID 0000.0001) %MON g__dynstat_g_salt_mean       =   0.0000000000000E+00
(PID.TID 0000.0001) %MON g__dynstat_g_salt_sd         =   0.0000000000000E+00
(PID.TID 0000.0001) %MON g__dynstat_g_salt_del2       =   0.0000000000000E+00
(PID.TID 0000.0001) %MON g__dynstat_g_sst_max         =   0.0000000000000E+00
(PID.TID 0000.0001) %MON g__dynstat_g_sst_min         =   0.0000000000000E+00
(PID.TID 0000.0001) %MON g__dynstat_g_sst_mean        =   0.0000000000000E+00
(PID.TID 0000.0001) %MON g__dynstat_g_sst_sd          =   0.0000000000000E+00
(PID.TID 0000.0001) %MON g__dynstat_g_sst_del2        =   0.0000000000000E+00
(PID.TID 0000.0001) %MON g__dynstat_g_sss_max         =   0.0000000000000E+00
(PID.TID 0000.0001) %MON g__dynstat_g_sss_min         =   0.0000000000000E+00
(PID.TID 0000.0001) %MON g__dynstat_g_sss_mean        =   0.0000000000000E+00
(PID.TID 0000.0001) %MON g__dynstat_g_sss_sd          =   0.0000000000000E+00
(PID.TID 0000.0001) %MON g__dynstat_g_sss_del2        =   0.0000000000000E+00
(PID.TID 0000.0001) %MON g__extforcing_g_qnet_max     =   0.0000000000000E+00
(PID.TID 0000.0001) %MON g__extforcing_g_qnet_min     =   0.0000000000000E+00
(PID.TID 0000.0001) %MON g__extforcing_g_qnet_mean    =   0.0000000000000E+00
(PID.TID 0000.0001) %MON g__extforcing_g_qnet_sd      =   0.0000000000000E+00
(PID.TID 0000.0001) %MON g__extforcing_g_qnet_del2    =   0.0000000000000E+00
(PID.TID 0000.0001) %MON g__extforcing_g_empmr_max    =   0.0000000000000E+00
(PID.TID 0000.0001) %MON g__extforcing_g_empmr_min    =   0.0000000000000E+00
(PID.TID 0000.0001) %MON g__extforcing_g_empmr_mean   =   0.0000000000000E+00
(PID.TID 0000.0001) %MON g__extforcing_g_empmr_sd     =   0.0000000000000E+00
(PID.TID 0000.0001) %MON g__extforcing_g_empmr_del2   =   0.0000000000000E+00
(PID.TID 0000.0001) %MON g__extforcing_g_fu_max       =   0.0000000000000E+00
(PID.TID 0000.0001) %MON g__extforcing_g_fu_min       =   0.0000000000000E+00
(PID.TID 0000.0001) %MON g__extforcing_g_fu_mean      =   0.0000000000000E+00
(PID.TID 0000.0001) %MON g__extforcing_g_fu_sd        =   0.0000000000000E+00
(PID.TID 0000.0001) %MON g__extforcing_g_fu_del2      =   0.0000000000000E+00
(PID.TID 0000.0001) %MON g__extforcing_g_fv_max       =   0.0000000000000E+00
(PID.TID 0000.0001) %MON g__extforcing_g_fv_min       =   0.0000000000000E+00
(PID.TID 0000.0001) %MON g__extforcing_g_fv_mean      =   0.0000000000000E+00
(PID.TID 0000.0001) %MON g__extforcing_g_fv_sd        =   0.0000000000000E+00
(PID.TID 0000.0001) %MON g__extforcing_g_fv_del2      =   0.0000000000000E+00
(PID.TID 0000.0001) %MON g__g_vcfl_g_uvel_max         =   0.0000000000000E+00
(PID.TID 0000.0001) %MON g__g_vcfl_g_vvel_max         =   0.0000000000000E+00
(PID.TID 0000.0001) %MON g__g_vcfl_g_wvel_max         =   0.0000000000000E+00
(PID.TID 0000.0001) %MON g__g_vcfl_g_W_hf_max         =   0.0000000000000E+00
(PID.TID 0000.0001) // =======================================================
(PID.TID 0000.0001) // End MONITOR dynamic field statistics
(PID.TID 0000.0001) // =======================================================
 cg2d: Sum(rhs),rhsMax =   0.00000000000000E+00  0.00000000000000E+00
 cg2d: Sum(rhs),rhsMax =   2.72855349425782E-12  1.00619947917649E+01
(PID.TID 0000.0001) // =======================================================
(PID.TID 0000.0001) // Begin MONITOR dynamic field statistics
(PID.TID 0000.0001) // =======================================================
(PID.TID 0000.0001) %MON g__time_tsnumber             =                   102
(PID.TID 0000.0001) %MON g__time_secondsf             =   4.4064000000000E+06
(PID.TID 0000.0001) %MON g__dynstat_g_eta_max         =   0.0000000000000E+00
(PID.TID 0000.0001) %MON g__dynstat_g_eta_min         =   0.0000000000000E+00
(PID.TID 0000.0001) %MON g__dynstat_g_eta_mean        =   0.0000000000000E+00
(PID.TID 0000.0001) %MON g__dynstat_g_eta_sd          =   0.0000000000000E+00
(PID.TID 0000.0001) %MON g__dynstat_g_eta_del2        =   0.0000000000000E+00
(PID.TID 0000.0001) %MON g__dynstat_g_uvel_max        =   0.0000000000000E+00
(PID.TID 0000.0001) %MON g__dynstat_g_uvel_min        =   0.0000000000000E+00
(PID.TID 0000.0001) %MON g__dynstat_g_uvel_mean       =   0.0000000000000E+00
(PID.TID 0000.0001) %MON g__dynstat_g_uvel_sd         =   0.0000000000000E+00
(PID.TID 0000.0001) %MON g__dynstat_g_uvel_del2       =   0.0000000000000E+00
(PID.TID 0000.0001) %MON g__dynstat_g_vvel_max        =   0.0000000000000E+00
(PID.TID 0000.0001) %MON g__dynstat_g_vvel_min        =   0.0000000000000E+00
(PID.TID 0000.0001) %MON g__dynstat_g_vvel_mean       =   0.0000000000000E+00
(PID.TID 0000.0001) %MON g__dynstat_g_vvel_sd         =   0.0000000000000E+00
(PID.TID 0000.0001) %MON g__dynstat_g_vvel_del2       =   0.0000000000000E+00
(PID.TID 0000.0001) %MON g__dynstat_g_wvel_max        =   0.0000000000000E+00
(PID.TID 0000.0001) %MON g__dynstat_g_wvel_min        =   0.0000000000000E+00
(PID.TID 0000.0001) %MON g__dynstat_g_wvel_mean       =   0.0000000000000E+00
(PID.TID 0000.0001) %MON g__dynstat_g_wvel_sd         =   0.0000000000000E+00
(PID.TID 0000.0001) %MON g__dynstat_g_wvel_del2       =   0.0000000000000E+00
(PID.TID 0000.0001) %MON g__dynstat_g_theta_max       =   0.0000000000000E+00
(PID.TID 0000.0001) %MON g__dynstat_g_theta_min       =   0.0000000000000E+00
(PID.TID 0000.0001) %MON g__dynstat_g_theta_mean      =   0.0000000000000E+00
(PID.TID 0000.0001) %MON g__dynstat_g_theta_sd        =   0.0000000000000E+00
(PID.TID 0000.0001) %MON g__dynstat_g_theta_del2      =   0.0000000000000E+00
(PID.TID 0000.0001) %MON g__dynstat_g_salt_max        =   0.0000000000000E+00
(PID.TID 0000.0001) %MON g__dynstat_g_salt_min        =   0.0000000000000E+00
(PID.TID 0000.0001) %MON g__dynstat_g_salt_mean       =   0.0000000000000E+00
(PID.TID 0000.0001) %MON g__dynstat_g_salt_sd         =   0.0000000000000E+00
(PID.TID 0000.0001) %MON g__dynstat_g_salt_del2       =   0.0000000000000E+00
(PID.TID 0000.0001) %MON g__dynstat_g_sst_max         =   0.0000000000000E+00
(PID.TID 0000.0001) %MON g__dynstat_g_sst_min         =   0.0000000000000E+00
(PID.TID 0000.0001) %MON g__dynstat_g_sst_mean        =   0.0000000000000E+00
(PID.TID 0000.0001) %MON g__dynstat_g_sst_sd          =   0.0000000000000E+00
(PID.TID 0000.0001) %MON g__dynstat_g_sst_del2        =   0.0000000000000E+00
(PID.TID 0000.0001) %MON g__dynstat_g_sss_max         =   0.0000000000000E+00
(PID.TID 0000.0001) %MON g__dynstat_g_sss_min         =   0.0000000000000E+00
(PID.TID 0000.0001) %MON g__dynstat_g_sss_mean        =   0.0000000000000E+00
(PID.TID 0000.0001) %MON g__dynstat_g_sss_sd          =   0.0000000000000E+00
(PID.TID 0000.0001) %MON g__dynstat_g_sss_del2        =   0.0000000000000E+00
(PID.TID 0000.0001) %MON g__extforcing_g_qnet_max     =   0.0000000000000E+00
(PID.TID 0000.0001) %MON g__extforcing_g_qnet_min     =   0.0000000000000E+00
(PID.TID 0000.0001) %MON g__extforcing_g_qnet_mean    =   0.0000000000000E+00
(PID.TID 0000.0001) %MON g__extforcing_g_qnet_sd      =   0.0000000000000E+00
(PID.TID 0000.0001) %MON g__extforcing_g_qnet_del2    =   0.0000000000000E+00
(PID.TID 0000.0001) %MON g__extforcing_g_empmr_max    =   0.0000000000000E+00
(PID.TID 0000.0001) %MON g__extforcing_g_empmr_min    =   0.0000000000000E+00
(PID.TID 0000.0001) %MON g__extforcing_g_empmr_mean   =   0.0000000000000E+00
(PID.TID 0000.0001) %MON g__extforcing_g_empmr_sd     =   0.0000000000000E+00
(PID.TID 0000.0001) %MON g__extforcing_g_empmr_del2   =   0.0000000000000E+00
(PID.TID 0000.0001) %MON g__extforcing_g_fu_max       =   0.0000000000000E+00
(PID.TID 0000.0001) %MON g__extforcing_g_fu_min       =   0.0000000000000E+00
(PID.TID 0000.0001) %MON g__extforcing_g_fu_mean      =   0.0000000000000E+00
(PID.TID 0000.0001) %MON g__extforcing_g_fu_sd        =   0.0000000000000E+00
(PID.TID 0000.0001) %MON g__extforcing_g_fu_del2      =   0.0000000000000E+00
(PID.TID 0000.0001) %MON g__extforcing_g_fv_max       =   0.0000000000000E+00
(PID.TID 0000.0001) %MON g__extforcing_g_fv_min       =   0.0000000000000E+00
(PID.TID 0000.0001) %MON g__extforcing_g_fv_mean      =   0.0000000000000E+00
(PID.TID 0000.0001) %MON g__extforcing_g_fv_sd        =   0.0000000000000E+00
(PID.TID 0000.0001) %MON g__extforcing_g_fv_del2      =   0.0000000000000E+00
(PID.TID 0000.0001) %MON g__g_vcfl_g_uvel_max         =   0.0000000000000E+00
(PID.TID 0000.0001) %MON g__g_vcfl_g_vvel_max         =   0.0000000000000E+00
(PID.TID 0000.0001) %MON g__g_vcfl_g_wvel_max         =   0.0000000000000E+00
(PID.TID 0000.0001) %MON g__g_vcfl_g_W_hf_max         =   0.0000000000000E+00
(PID.TID 0000.0001) // =======================================================
(PID.TID 0000.0001) // End MONITOR dynamic field statistics
(PID.TID 0000.0001) // =======================================================
 cg2d: Sum(rhs),rhsMax =   0.00000000000000E+00  0.00000000000000E+00
 cg2d: Sum(rhs),rhsMax =   2.42582343101816E-12  9.89195713846400E+00
(PID.TID 0000.0001) // =======================================================
(PID.TID 0000.0001) // Begin MONITOR dynamic field statistics
(PID.TID 0000.0001) // =======================================================
(PID.TID 0000.0001) %MON g__time_tsnumber             =                   103
(PID.TID 0000.0001) %MON g__time_secondsf             =   4.4496000000000E+06
(PID.TID 0000.0001) %MON g__dynstat_g_eta_max         =   0.0000000000000E+00
(PID.TID 0000.0001) %MON g__dynstat_g_eta_min         =   0.0000000000000E+00
(PID.TID 0000.0001) %MON g__dynstat_g_eta_mean        =   0.0000000000000E+00
(PID.TID 0000.0001) %MON g__dynstat_g_eta_sd          =   0.0000000000000E+00
(PID.TID 0000.0001) %MON g__dynstat_g_eta_del2        =   0.0000000000000E+00
(PID.TID 0000.0001) %MON g__dynstat_g_uvel_max        =   0.0000000000000E+00
(PID.TID 0000.0001) %MON g__dynstat_g_uvel_min        =   0.0000000000000E+00
(PID.TID 0000.0001) %MON g__dynstat_g_uvel_mean       =   0.0000000000000E+00
(PID.TID 0000.0001) %MON g__dynstat_g_uvel_sd         =   0.0000000000000E+00
(PID.TID 0000.0001) %MON g__dynstat_g_uvel_del2       =   0.0000000000000E+00
(PID.TID 0000.0001) %MON g__dynstat_g_vvel_max        =   0.0000000000000E+00
(PID.TID 0000.0001) %MON g__dynstat_g_vvel_min        =   0.0000000000000E+00
(PID.TID 0000.0001) %MON g__dynstat_g_vvel_mean       =   0.0000000000000E+00
(PID.TID 0000.0001) %MON g__dynstat_g_vvel_sd         =   0.0000000000000E+00
(PID.TID 0000.0001) %MON g__dynstat_g_vvel_del2       =   0.0000000000000E+00
(PID.TID 0000.0001) %MON g__dynstat_g_wvel_max        =   0.0000000000000E+00
(PID.TID 0000.0001) %MON g__dynstat_g_wvel_min        =   0.0000000000000E+00
(PID.TID 0000.0001) %MON g__dynstat_g_wvel_mean       =   0.0000000000000E+00
(PID.TID 0000.0001) %MON g__dynstat_g_wvel_sd         =   0.0000000000000E+00
(PID.TID 0000.0001) %MON g__dynstat_g_wvel_del2       =   0.0000000000000E+00
(PID.TID 0000.0001) %MON g__dynstat_g_theta_max       =   0.0000000000000E+00
(PID.TID 0000.0001) %MON g__dynstat_g_theta_min       =   0.0000000000000E+00
(PID.TID 0000.0001) %MON g__dynstat_g_theta_mean      =   0.0000000000000E+00
(PID.TID 0000.0001) %MON g__dynstat_g_theta_sd        =   0.0000000000000E+00
(PID.TID 0000.0001) %MON g__dynstat_g_theta_del2      =   0.0000000000000E+00
(PID.TID 0000.0001) %MON g__dynstat_g_salt_max        =   0.0000000000000E+00
(PID.TID 0000.0001) %MON g__dynstat_g_salt_min        =   0.0000000000000E+00
(PID.TID 0000.0001) %MON g__dynstat_g_salt_mean       =   0.0000000000000E+00
(PID.TID 0000.0001) %MON g__dynstat_g_salt_sd         =   0.0000000000000E+00
(PID.TID 0000.0001) %MON g__dynstat_g_salt_del2       =   0.0000000000000E+00
(PID.TID 0000.0001) %MON g__dynstat_g_sst_max         =   0.0000000000000E+00
(PID.TID 0000.0001) %MON g__dynstat_g_sst_min         =   0.0000000000000E+00
(PID.TID 0000.0001) %MON g__dynstat_g_sst_mean        =   0.0000000000000E+00
(PID.TID 0000.0001) %MON g__dynstat_g_sst_sd          =   0.0000000000000E+00
(PID.TID 0000.0001) %MON g__dynstat_g_sst_del2        =   0.0000000000000E+00
(PID.TID 0000.0001) %MON g__dynstat_g_sss_max         =   0.0000000000000E+00
(PID.TID 0000.0001) %MON g__dynstat_g_sss_min         =   0.0000000000000E+00
(PID.TID 0000.0001) %MON g__dynstat_g_sss_mean        =   0.0000000000000E+00
(PID.TID 0000.0001) %MON g__dynstat_g_sss_sd          =   0.0000000000000E+00
(PID.TID 0000.0001) %MON g__dynstat_g_sss_del2        =   0.0000000000000E+00
(PID.TID 0000.0001) %MON g__extforcing_g_qnet_max     =   0.0000000000000E+00
(PID.TID 0000.0001) %MON g__extforcing_g_qnet_min     =   0.0000000000000E+00
(PID.TID 0000.0001) %MON g__extforcing_g_qnet_mean    =   0.0000000000000E+00
(PID.TID 0000.0001) %MON g__extforcing_g_qnet_sd      =   0.0000000000000E+00
(PID.TID 0000.0001) %MON g__extforcing_g_qnet_del2    =   0.0000000000000E+00
(PID.TID 0000.0001) %MON g__extforcing_g_empmr_max    =   0.0000000000000E+00
(PID.TID 0000.0001) %MON g__extforcing_g_empmr_min    =   0.0000000000000E+00
(PID.TID 0000.0001) %MON g__extforcing_g_empmr_mean   =   0.0000000000000E+00
(PID.TID 0000.0001) %MON g__extforcing_g_empmr_sd     =   0.0000000000000E+00
(PID.TID 0000.0001) %MON g__extforcing_g_empmr_del2   =   0.0000000000000E+00
(PID.TID 0000.0001) %MON g__extforcing_g_fu_max       =   0.0000000000000E+00
(PID.TID 0000.0001) %MON g__extforcing_g_fu_min       =   0.0000000000000E+00
(PID.TID 0000.0001) %MON g__extforcing_g_fu_mean      =   0.0000000000000E+00
(PID.TID 0000.0001) %MON g__extforcing_g_fu_sd        =   0.0000000000000E+00
(PID.TID 0000.0001) %MON g__extforcing_g_fu_del2      =   0.0000000000000E+00
(PID.TID 0000.0001) %MON g__extforcing_g_fv_max       =   0.0000000000000E+00
(PID.TID 0000.0001) %MON g__extforcing_g_fv_min       =   0.0000000000000E+00
(PID.TID 0000.0001) %MON g__extforcing_g_fv_mean      =   0.0000000000000E+00
(PID.TID 0000.0001) %MON g__extforcing_g_fv_sd        =   0.0000000000000E+00
(PID.TID 0000.0001) %MON g__extforcing_g_fv_del2      =   0.0000000000000E+00
(PID.TID 0000.0001) %MON g__g_vcfl_g_uvel_max         =   0.0000000000000E+00
(PID.TID 0000.0001) %MON g__g_vcfl_g_vvel_max         =   0.0000000000000E+00
(PID.TID 0000.0001) %MON g__g_vcfl_g_wvel_max         =   0.0000000000000E+00
(PID.TID 0000.0001) %MON g__g_vcfl_g_W_hf_max         =   0.0000000000000E+00
(PID.TID 0000.0001) // =======================================================
(PID.TID 0000.0001) // End MONITOR dynamic field statistics
(PID.TID 0000.0001) // =======================================================
 cg2d: Sum(rhs),rhsMax =   0.00000000000000E+00  0.00000000000000E+00
 cg2d: Sum(rhs),rhsMax =   2.82780049376541E-12  9.67292361771449E+00
(PID.TID 0000.0001) // =======================================================
(PID.TID 0000.0001) // Begin MONITOR dynamic field statistics
(PID.TID 0000.0001) // =======================================================
(PID.TID 0000.0001) %MON g__time_tsnumber             =                   104
(PID.TID 0000.0001) %MON g__time_secondsf             =   4.4928000000000E+06
(PID.TID 0000.0001) %MON g__dynstat_g_eta_max         =   0.0000000000000E+00
(PID.TID 0000.0001) %MON g__dynstat_g_eta_min         =   0.0000000000000E+00
(PID.TID 0000.0001) %MON g__dynstat_g_eta_mean        =   0.0000000000000E+00
(PID.TID 0000.0001) %MON g__dynstat_g_eta_sd          =   0.0000000000000E+00
(PID.TID 0000.0001) %MON g__dynstat_g_eta_del2        =   0.0000000000000E+00
(PID.TID 0000.0001) %MON g__dynstat_g_uvel_max        =   0.0000000000000E+00
(PID.TID 0000.0001) %MON g__dynstat_g_uvel_min        =   0.0000000000000E+00
(PID.TID 0000.0001) %MON g__dynstat_g_uvel_mean       =   0.0000000000000E+00
(PID.TID 0000.0001) %MON g__dynstat_g_uvel_sd         =   0.0000000000000E+00
(PID.TID 0000.0001) %MON g__dynstat_g_uvel_del2       =   0.0000000000000E+00
(PID.TID 0000.0001) %MON g__dynstat_g_vvel_max        =   0.0000000000000E+00
(PID.TID 0000.0001) %MON g__dynstat_g_vvel_min        =   0.0000000000000E+00
(PID.TID 0000.0001) %MON g__dynstat_g_vvel_mean       =   0.0000000000000E+00
(PID.TID 0000.0001) %MON g__dynstat_g_vvel_sd         =   0.0000000000000E+00
(PID.TID 0000.0001) %MON g__dynstat_g_vvel_del2       =   0.0000000000000E+00
(PID.TID 0000.0001) %MON g__dynstat_g_wvel_max        =   0.0000000000000E+00
(PID.TID 0000.0001) %MON g__dynstat_g_wvel_min        =   0.0000000000000E+00
(PID.TID 0000.0001) %MON g__dynstat_g_wvel_mean       =   0.0000000000000E+00
(PID.TID 0000.0001) %MON g__dynstat_g_wvel_sd         =   0.0000000000000E+00
(PID.TID 0000.0001) %MON g__dynstat_g_wvel_del2       =   0.0000000000000E+00
(PID.TID 0000.0001) %MON g__dynstat_g_theta_max       =   0.0000000000000E+00
(PID.TID 0000.0001) %MON g__dynstat_g_theta_min       =   0.0000000000000E+00
(PID.TID 0000.0001) %MON g__dynstat_g_theta_mean      =   0.0000000000000E+00
(PID.TID 0000.0001) %MON g__dynstat_g_theta_sd        =   0.0000000000000E+00
(PID.TID 0000.0001) %MON g__dynstat_g_theta_del2      =   0.0000000000000E+00
(PID.TID 0000.0001) %MON g__dynstat_g_salt_max        =   0.0000000000000E+00
(PID.TID 0000.0001) %MON g__dynstat_g_salt_min        =   0.0000000000000E+00
(PID.TID 0000.0001) %MON g__dynstat_g_salt_mean       =   0.0000000000000E+00
(PID.TID 0000.0001) %MON g__dynstat_g_salt_sd         =   0.0000000000000E+00
(PID.TID 0000.0001) %MON g__dynstat_g_salt_del2       =   0.0000000000000E+00
(PID.TID 0000.0001) %MON g__dynstat_g_sst_max         =   0.0000000000000E+00
(PID.TID 0000.0001) %MON g__dynstat_g_sst_min         =   0.0000000000000E+00
(PID.TID 0000.0001) %MON g__dynstat_g_sst_mean        =   0.0000000000000E+00
(PID.TID 0000.0001) %MON g__dynstat_g_sst_sd          =   0.0000000000000E+00
(PID.TID 0000.0001) %MON g__dynstat_g_sst_del2        =   0.0000000000000E+00
(PID.TID 0000.0001) %MON g__dynstat_g_sss_max         =   0.0000000000000E+00
(PID.TID 0000.0001) %MON g__dynstat_g_sss_min         =   0.0000000000000E+00
(PID.TID 0000.0001) %MON g__dynstat_g_sss_mean        =   0.0000000000000E+00
(PID.TID 0000.0001) %MON g__dynstat_g_sss_sd          =   0.0000000000000E+00
(PID.TID 0000.0001) %MON g__dynstat_g_sss_del2        =   0.0000000000000E+00
(PID.TID 0000.0001) %MON g__extforcing_g_qnet_max     =   0.0000000000000E+00
(PID.TID 0000.0001) %MON g__extforcing_g_qnet_min     =   0.0000000000000E+00
(PID.TID 0000.0001) %MON g__extforcing_g_qnet_mean    =   0.0000000000000E+00
(PID.TID 0000.0001) %MON g__extforcing_g_qnet_sd      =   0.0000000000000E+00
(PID.TID 0000.0001) %MON g__extforcing_g_qnet_del2    =   0.0000000000000E+00
(PID.TID 0000.0001) %MON g__extforcing_g_empmr_max    =   0.0000000000000E+00
(PID.TID 0000.0001) %MON g__extforcing_g_empmr_min    =   0.0000000000000E+00
(PID.TID 0000.0001) %MON g__extforcing_g_empmr_mean   =   0.0000000000000E+00
(PID.TID 0000.0001) %MON g__extforcing_g_empmr_sd     =   0.0000000000000E+00
(PID.TID 0000.0001) %MON g__extforcing_g_empmr_del2   =   0.0000000000000E+00
(PID.TID 0000.0001) %MON g__extforcing_g_fu_max       =   0.0000000000000E+00
(PID.TID 0000.0001) %MON g__extforcing_g_fu_min       =   0.0000000000000E+00
(PID.TID 0000.0001) %MON g__extforcing_g_fu_mean      =   0.0000000000000E+00
(PID.TID 0000.0001) %MON g__extforcing_g_fu_sd        =   0.0000000000000E+00
(PID.TID 0000.0001) %MON g__extforcing_g_fu_del2      =   0.0000000000000E+00
(PID.TID 0000.0001) %MON g__extforcing_g_fv_max       =   0.0000000000000E+00
(PID.TID 0000.0001) %MON g__extforcing_g_fv_min       =   0.0000000000000E+00
(PID.TID 0000.0001) %MON g__extforcing_g_fv_mean      =   0.0000000000000E+00
(PID.TID 0000.0001) %MON g__extforcing_g_fv_sd        =   0.0000000000000E+00
(PID.TID 0000.0001) %MON g__extforcing_g_fv_del2      =   0.0000000000000E+00
(PID.TID 0000.0001) %MON g__g_vcfl_g_uvel_max         =   0.0000000000000E+00
(PID.TID 0000.0001) %MON g__g_vcfl_g_vvel_max         =   0.0000000000000E+00
(PID.TID 0000.0001) %MON g__g_vcfl_g_wvel_max         =   0.0000000000000E+00
(PID.TID 0000.0001) %MON g__g_vcfl_g_W_hf_max         =   0.0000000000000E+00
(PID.TID 0000.0001) // =======================================================
(PID.TID 0000.0001) // End MONITOR dynamic field statistics
(PID.TID 0000.0001) // =======================================================
 cg2d: Sum(rhs),rhsMax =   0.00000000000000E+00  0.00000000000000E+00
 cg2d: Sum(rhs),rhsMax =   2.33942726302061E-12  9.41296214456248E+00
(PID.TID 0000.0001) // =======================================================
(PID.TID 0000.0001) // Begin MONITOR dynamic field statistics
(PID.TID 0000.0001) // =======================================================
(PID.TID 0000.0001) %MON g__time_tsnumber             =                   105
(PID.TID 0000.0001) %MON g__time_secondsf             =   4.5360000000000E+06
(PID.TID 0000.0001) %MON g__dynstat_g_eta_max         =   0.0000000000000E+00
(PID.TID 0000.0001) %MON g__dynstat_g_eta_min         =   0.0000000000000E+00
(PID.TID 0000.0001) %MON g__dynstat_g_eta_mean        =   0.0000000000000E+00
(PID.TID 0000.0001) %MON g__dynstat_g_eta_sd          =   0.0000000000000E+00
(PID.TID 0000.0001) %MON g__dynstat_g_eta_del2        =   0.0000000000000E+00
(PID.TID 0000.0001) %MON g__dynstat_g_uvel_max        =   0.0000000000000E+00
(PID.TID 0000.0001) %MON g__dynstat_g_uvel_min        =   0.0000000000000E+00
(PID.TID 0000.0001) %MON g__dynstat_g_uvel_mean       =   0.0000000000000E+00
(PID.TID 0000.0001) %MON g__dynstat_g_uvel_sd         =   0.0000000000000E+00
(PID.TID 0000.0001) %MON g__dynstat_g_uvel_del2       =   0.0000000000000E+00
(PID.TID 0000.0001) %MON g__dynstat_g_vvel_max        =   0.0000000000000E+00
(PID.TID 0000.0001) %MON g__dynstat_g_vvel_min        =   0.0000000000000E+00
(PID.TID 0000.0001) %MON g__dynstat_g_vvel_mean       =   0.0000000000000E+00
(PID.TID 0000.0001) %MON g__dynstat_g_vvel_sd         =   0.0000000000000E+00
(PID.TID 0000.0001) %MON g__dynstat_g_vvel_del2       =   0.0000000000000E+00
(PID.TID 0000.0001) %MON g__dynstat_g_wvel_max        =   0.0000000000000E+00
(PID.TID 0000.0001) %MON g__dynstat_g_wvel_min        =   0.0000000000000E+00
(PID.TID 0000.0001) %MON g__dynstat_g_wvel_mean       =   0.0000000000000E+00
(PID.TID 0000.0001) %MON g__dynstat_g_wvel_sd         =   0.0000000000000E+00
(PID.TID 0000.0001) %MON g__dynstat_g_wvel_del2       =   0.0000000000000E+00
(PID.TID 0000.0001) %MON g__dynstat_g_theta_max       =   0.0000000000000E+00
(PID.TID 0000.0001) %MON g__dynstat_g_theta_min       =   0.0000000000000E+00
(PID.TID 0000.0001) %MON g__dynstat_g_theta_mean      =   0.0000000000000E+00
(PID.TID 0000.0001) %MON g__dynstat_g_theta_sd        =   0.0000000000000E+00
(PID.TID 0000.0001) %MON g__dynstat_g_theta_del2      =   0.0000000000000E+00
(PID.TID 0000.0001) %MON g__dynstat_g_salt_max        =   0.0000000000000E+00
(PID.TID 0000.0001) %MON g__dynstat_g_salt_min        =   0.0000000000000E+00
(PID.TID 0000.0001) %MON g__dynstat_g_salt_mean       =   0.0000000000000E+00
(PID.TID 0000.0001) %MON g__dynstat_g_salt_sd         =   0.0000000000000E+00
(PID.TID 0000.0001) %MON g__dynstat_g_salt_del2       =   0.0000000000000E+00
(PID.TID 0000.0001) %MON g__dynstat_g_sst_max         =   0.0000000000000E+00
(PID.TID 0000.0001) %MON g__dynstat_g_sst_min         =   0.0000000000000E+00
(PID.TID 0000.0001) %MON g__dynstat_g_sst_mean        =   0.0000000000000E+00
(PID.TID 0000.0001) %MON g__dynstat_g_sst_sd          =   0.0000000000000E+00
(PID.TID 0000.0001) %MON g__dynstat_g_sst_del2        =   0.0000000000000E+00
(PID.TID 0000.0001) %MON g__dynstat_g_sss_max         =   0.0000000000000E+00
(PID.TID 0000.0001) %MON g__dynstat_g_sss_min         =   0.0000000000000E+00
(PID.TID 0000.0001) %MON g__dynstat_g_sss_mean        =   0.0000000000000E+00
(PID.TID 0000.0001) %MON g__dynstat_g_sss_sd          =   0.0000000000000E+00
(PID.TID 0000.0001) %MON g__dynstat_g_sss_del2        =   0.0000000000000E+00
(PID.TID 0000.0001) %MON g__extforcing_g_qnet_max     =   0.0000000000000E+00
(PID.TID 0000.0001) %MON g__extforcing_g_qnet_min     =   0.0000000000000E+00
(PID.TID 0000.0001) %MON g__extforcing_g_qnet_mean    =   0.0000000000000E+00
(PID.TID 0000.0001) %MON g__extforcing_g_qnet_sd      =   0.0000000000000E+00
(PID.TID 0000.0001) %MON g__extforcing_g_qnet_del2    =   0.0000000000000E+00
(PID.TID 0000.0001) %MON g__extforcing_g_empmr_max    =   0.0000000000000E+00
(PID.TID 0000.0001) %MON g__extforcing_g_empmr_min    =   0.0000000000000E+00
(PID.TID 0000.0001) %MON g__extforcing_g_empmr_mean   =   0.0000000000000E+00
(PID.TID 0000.0001) %MON g__extforcing_g_empmr_sd     =   0.0000000000000E+00
(PID.TID 0000.0001) %MON g__extforcing_g_empmr_del2   =   0.0000000000000E+00
(PID.TID 0000.0001) %MON g__extforcing_g_fu_max       =   0.0000000000000E+00
(PID.TID 0000.0001) %MON g__extforcing_g_fu_min       =   0.0000000000000E+00
(PID.TID 0000.0001) %MON g__extforcing_g_fu_mean      =   0.0000000000000E+00
(PID.TID 0000.0001) %MON g__extforcing_g_fu_sd        =   0.0000000000000E+00
(PID.TID 0000.0001) %MON g__extforcing_g_fu_del2      =   0.0000000000000E+00
(PID.TID 0000.0001) %MON g__extforcing_g_fv_max       =   0.0000000000000E+00
(PID.TID 0000.0001) %MON g__extforcing_g_fv_min       =   0.0000000000000E+00
(PID.TID 0000.0001) %MON g__extforcing_g_fv_mean      =   0.0000000000000E+00
(PID.TID 0000.0001) %MON g__extforcing_g_fv_sd        =   0.0000000000000E+00
(PID.TID 0000.0001) %MON g__extforcing_g_fv_del2      =   0.0000000000000E+00
(PID.TID 0000.0001) %MON g__g_vcfl_g_uvel_max         =   0.0000000000000E+00
(PID.TID 0000.0001) %MON g__g_vcfl_g_vvel_max         =   0.0000000000000E+00
(PID.TID 0000.0001) %MON g__g_vcfl_g_wvel_max         =   0.0000000000000E+00
(PID.TID 0000.0001) %MON g__g_vcfl_g_W_hf_max         =   0.0000000000000E+00
(PID.TID 0000.0001) // =======================================================
(PID.TID 0000.0001) // End MONITOR dynamic field statistics
(PID.TID 0000.0001) // =======================================================
 cg2d: Sum(rhs),rhsMax =   0.00000000000000E+00  0.00000000000000E+00
 cg2d: Sum(rhs),rhsMax =   2.53150278517467E-12  9.12079410559005E+00
(PID.TID 0000.0001) // =======================================================
(PID.TID 0000.0001) // Begin MONITOR dynamic field statistics
(PID.TID 0000.0001) // =======================================================
(PID.TID 0000.0001) %MON g__time_tsnumber             =                   106
(PID.TID 0000.0001) %MON g__time_secondsf             =   4.5792000000000E+06
(PID.TID 0000.0001) %MON g__dynstat_g_eta_max         =   0.0000000000000E+00
(PID.TID 0000.0001) %MON g__dynstat_g_eta_min         =   0.0000000000000E+00
(PID.TID 0000.0001) %MON g__dynstat_g_eta_mean        =   0.0000000000000E+00
(PID.TID 0000.0001) %MON g__dynstat_g_eta_sd          =   0.0000000000000E+00
(PID.TID 0000.0001) %MON g__dynstat_g_eta_del2        =   0.0000000000000E+00
(PID.TID 0000.0001) %MON g__dynstat_g_uvel_max        =   0.0000000000000E+00
(PID.TID 0000.0001) %MON g__dynstat_g_uvel_min        =   0.0000000000000E+00
(PID.TID 0000.0001) %MON g__dynstat_g_uvel_mean       =   0.0000000000000E+00
(PID.TID 0000.0001) %MON g__dynstat_g_uvel_sd         =   0.0000000000000E+00
(PID.TID 0000.0001) %MON g__dynstat_g_uvel_del2       =   0.0000000000000E+00
(PID.TID 0000.0001) %MON g__dynstat_g_vvel_max        =   0.0000000000000E+00
(PID.TID 0000.0001) %MON g__dynstat_g_vvel_min        =   0.0000000000000E+00
(PID.TID 0000.0001) %MON g__dynstat_g_vvel_mean       =   0.0000000000000E+00
(PID.TID 0000.0001) %MON g__dynstat_g_vvel_sd         =   0.0000000000000E+00
(PID.TID 0000.0001) %MON g__dynstat_g_vvel_del2       =   0.0000000000000E+00
(PID.TID 0000.0001) %MON g__dynstat_g_wvel_max        =   0.0000000000000E+00
(PID.TID 0000.0001) %MON g__dynstat_g_wvel_min        =   0.0000000000000E+00
(PID.TID 0000.0001) %MON g__dynstat_g_wvel_mean       =   0.0000000000000E+00
(PID.TID 0000.0001) %MON g__dynstat_g_wvel_sd         =   0.0000000000000E+00
(PID.TID 0000.0001) %MON g__dynstat_g_wvel_del2       =   0.0000000000000E+00
(PID.TID 0000.0001) %MON g__dynstat_g_theta_max       =   0.0000000000000E+00
(PID.TID 0000.0001) %MON g__dynstat_g_theta_min       =   0.0000000000000E+00
(PID.TID 0000.0001) %MON g__dynstat_g_theta_mean      =   0.0000000000000E+00
(PID.TID 0000.0001) %MON g__dynstat_g_theta_sd        =   0.0000000000000E+00
(PID.TID 0000.0001) %MON g__dynstat_g_theta_del2      =   0.0000000000000E+00
(PID.TID 0000.0001) %MON g__dynstat_g_salt_max        =   0.0000000000000E+00
(PID.TID 0000.0001) %MON g__dynstat_g_salt_min        =   0.0000000000000E+00
(PID.TID 0000.0001) %MON g__dynstat_g_salt_mean       =   0.0000000000000E+00
(PID.TID 0000.0001) %MON g__dynstat_g_salt_sd         =   0.0000000000000E+00
(PID.TID 0000.0001) %MON g__dynstat_g_salt_del2       =   0.0000000000000E+00
(PID.TID 0000.0001) %MON g__dynstat_g_sst_max         =   0.0000000000000E+00
(PID.TID 0000.0001) %MON g__dynstat_g_sst_min         =   0.0000000000000E+00
(PID.TID 0000.0001) %MON g__dynstat_g_sst_mean        =   0.0000000000000E+00
(PID.TID 0000.0001) %MON g__dynstat_g_sst_sd          =   0.0000000000000E+00
(PID.TID 0000.0001) %MON g__dynstat_g_sst_del2        =   0.0000000000000E+00
(PID.TID 0000.0001) %MON g__dynstat_g_sss_max         =   0.0000000000000E+00
(PID.TID 0000.0001) %MON g__dynstat_g_sss_min         =   0.0000000000000E+00
(PID.TID 0000.0001) %MON g__dynstat_g_sss_mean        =   0.0000000000000E+00
(PID.TID 0000.0001) %MON g__dynstat_g_sss_sd          =   0.0000000000000E+00
(PID.TID 0000.0001) %MON g__dynstat_g_sss_del2        =   0.0000000000000E+00
(PID.TID 0000.0001) %MON g__extforcing_g_qnet_max     =   0.0000000000000E+00
(PID.TID 0000.0001) %MON g__extforcing_g_qnet_min     =   0.0000000000000E+00
(PID.TID 0000.0001) %MON g__extforcing_g_qnet_mean    =   0.0000000000000E+00
(PID.TID 0000.0001) %MON g__extforcing_g_qnet_sd      =   0.0000000000000E+00
(PID.TID 0000.0001) %MON g__extforcing_g_qnet_del2    =   0.0000000000000E+00
(PID.TID 0000.0001) %MON g__extforcing_g_empmr_max    =   0.0000000000000E+00
(PID.TID 0000.0001) %MON g__extforcing_g_empmr_min    =   0.0000000000000E+00
(PID.TID 0000.0001) %MON g__extforcing_g_empmr_mean   =   0.0000000000000E+00
(PID.TID 0000.0001) %MON g__extforcing_g_empmr_sd     =   0.0000000000000E+00
(PID.TID 0000.0001) %MON g__extforcing_g_empmr_del2   =   0.0000000000000E+00
(PID.TID 0000.0001) %MON g__extforcing_g_fu_max       =   0.0000000000000E+00
(PID.TID 0000.0001) %MON g__extforcing_g_fu_min       =   0.0000000000000E+00
(PID.TID 0000.0001) %MON g__extforcing_g_fu_mean      =   0.0000000000000E+00
(PID.TID 0000.0001) %MON g__extforcing_g_fu_sd        =   0.0000000000000E+00
(PID.TID 0000.0001) %MON g__extforcing_g_fu_del2      =   0.0000000000000E+00
(PID.TID 0000.0001) %MON g__extforcing_g_fv_max       =   0.0000000000000E+00
(PID.TID 0000.0001) %MON g__extforcing_g_fv_min       =   0.0000000000000E+00
(PID.TID 0000.0001) %MON g__extforcing_g_fv_mean      =   0.0000000000000E+00
(PID.TID 0000.0001) %MON g__extforcing_g_fv_sd        =   0.0000000000000E+00
(PID.TID 0000.0001) %MON g__extforcing_g_fv_del2      =   0.0000000000000E+00
(PID.TID 0000.0001) %MON g__g_vcfl_g_uvel_max         =   0.0000000000000E+00
(PID.TID 0000.0001) %MON g__g_vcfl_g_vvel_max         =   0.0000000000000E+00
(PID.TID 0000.0001) %MON g__g_vcfl_g_wvel_max         =   0.0000000000000E+00
(PID.TID 0000.0001) %MON g__g_vcfl_g_W_hf_max         =   0.0000000000000E+00
(PID.TID 0000.0001) // =======================================================
(PID.TID 0000.0001) // End MONITOR dynamic field statistics
(PID.TID 0000.0001) // =======================================================
 cg2d: Sum(rhs),rhsMax =   0.00000000000000E+00  0.00000000000000E+00
 cg2d: Sum(rhs),rhsMax =   2.63028487879069E-12  8.86256540630887E+00
(PID.TID 0000.0001) // =======================================================
(PID.TID 0000.0001) // Begin MONITOR dynamic field statistics
(PID.TID 0000.0001) // =======================================================
(PID.TID 0000.0001) %MON g__time_tsnumber             =                   107
(PID.TID 0000.0001) %MON g__time_secondsf             =   4.6224000000000E+06
(PID.TID 0000.0001) %MON g__dynstat_g_eta_max         =   0.0000000000000E+00
(PID.TID 0000.0001) %MON g__dynstat_g_eta_min         =   0.0000000000000E+00
(PID.TID 0000.0001) %MON g__dynstat_g_eta_mean        =   0.0000000000000E+00
(PID.TID 0000.0001) %MON g__dynstat_g_eta_sd          =   0.0000000000000E+00
(PID.TID 0000.0001) %MON g__dynstat_g_eta_del2        =   0.0000000000000E+00
(PID.TID 0000.0001) %MON g__dynstat_g_uvel_max        =   0.0000000000000E+00
(PID.TID 0000.0001) %MON g__dynstat_g_uvel_min        =   0.0000000000000E+00
(PID.TID 0000.0001) %MON g__dynstat_g_uvel_mean       =   0.0000000000000E+00
(PID.TID 0000.0001) %MON g__dynstat_g_uvel_sd         =   0.0000000000000E+00
(PID.TID 0000.0001) %MON g__dynstat_g_uvel_del2       =   0.0000000000000E+00
(PID.TID 0000.0001) %MON g__dynstat_g_vvel_max        =   0.0000000000000E+00
(PID.TID 0000.0001) %MON g__dynstat_g_vvel_min        =   0.0000000000000E+00
(PID.TID 0000.0001) %MON g__dynstat_g_vvel_mean       =   0.0000000000000E+00
(PID.TID 0000.0001) %MON g__dynstat_g_vvel_sd         =   0.0000000000000E+00
(PID.TID 0000.0001) %MON g__dynstat_g_vvel_del2       =   0.0000000000000E+00
(PID.TID 0000.0001) %MON g__dynstat_g_wvel_max        =   0.0000000000000E+00
(PID.TID 0000.0001) %MON g__dynstat_g_wvel_min        =   0.0000000000000E+00
(PID.TID 0000.0001) %MON g__dynstat_g_wvel_mean       =   0.0000000000000E+00
(PID.TID 0000.0001) %MON g__dynstat_g_wvel_sd         =   0.0000000000000E+00
(PID.TID 0000.0001) %MON g__dynstat_g_wvel_del2       =   0.0000000000000E+00
(PID.TID 0000.0001) %MON g__dynstat_g_theta_max       =   0.0000000000000E+00
(PID.TID 0000.0001) %MON g__dynstat_g_theta_min       =   0.0000000000000E+00
(PID.TID 0000.0001) %MON g__dynstat_g_theta_mean      =   0.0000000000000E+00
(PID.TID 0000.0001) %MON g__dynstat_g_theta_sd        =   0.0000000000000E+00
(PID.TID 0000.0001) %MON g__dynstat_g_theta_del2      =   0.0000000000000E+00
(PID.TID 0000.0001) %MON g__dynstat_g_salt_max        =   0.0000000000000E+00
(PID.TID 0000.0001) %MON g__dynstat_g_salt_min        =   0.0000000000000E+00
(PID.TID 0000.0001) %MON g__dynstat_g_salt_mean       =   0.0000000000000E+00
(PID.TID 0000.0001) %MON g__dynstat_g_salt_sd         =   0.0000000000000E+00
(PID.TID 0000.0001) %MON g__dynstat_g_salt_del2       =   0.0000000000000E+00
(PID.TID 0000.0001) %MON g__dynstat_g_sst_max         =   0.0000000000000E+00
(PID.TID 0000.0001) %MON g__dynstat_g_sst_min         =   0.0000000000000E+00
(PID.TID 0000.0001) %MON g__dynstat_g_sst_mean        =   0.0000000000000E+00
(PID.TID 0000.0001) %MON g__dynstat_g_sst_sd          =   0.0000000000000E+00
(PID.TID 0000.0001) %MON g__dynstat_g_sst_del2        =   0.0000000000000E+00
(PID.TID 0000.0001) %MON g__dynstat_g_sss_max         =   0.0000000000000E+00
(PID.TID 0000.0001) %MON g__dynstat_g_sss_min         =   0.0000000000000E+00
(PID.TID 0000.0001) %MON g__dynstat_g_sss_mean        =   0.0000000000000E+00
(PID.TID 0000.0001) %MON g__dynstat_g_sss_sd          =   0.0000000000000E+00
(PID.TID 0000.0001) %MON g__dynstat_g_sss_del2        =   0.0000000000000E+00
(PID.TID 0000.0001) %MON g__extforcing_g_qnet_max     =   0.0000000000000E+00
(PID.TID 0000.0001) %MON g__extforcing_g_qnet_min     =   0.0000000000000E+00
(PID.TID 0000.0001) %MON g__extforcing_g_qnet_mean    =   0.0000000000000E+00
(PID.TID 0000.0001) %MON g__extforcing_g_qnet_sd      =   0.0000000000000E+00
(PID.TID 0000.0001) %MON g__extforcing_g_qnet_del2    =   0.0000000000000E+00
(PID.TID 0000.0001) %MON g__extforcing_g_empmr_max    =   0.0000000000000E+00
(PID.TID 0000.0001) %MON g__extforcing_g_empmr_min    =   0.0000000000000E+00
(PID.TID 0000.0001) %MON g__extforcing_g_empmr_mean   =   0.0000000000000E+00
(PID.TID 0000.0001) %MON g__extforcing_g_empmr_sd     =   0.0000000000000E+00
(PID.TID 0000.0001) %MON g__extforcing_g_empmr_del2   =   0.0000000000000E+00
(PID.TID 0000.0001) %MON g__extforcing_g_fu_max       =   0.0000000000000E+00
(PID.TID 0000.0001) %MON g__extforcing_g_fu_min       =   0.0000000000000E+00
(PID.TID 0000.0001) %MON g__extforcing_g_fu_mean      =   0.0000000000000E+00
(PID.TID 0000.0001) %MON g__extforcing_g_fu_sd        =   0.0000000000000E+00
(PID.TID 0000.0001) %MON g__extforcing_g_fu_del2      =   0.0000000000000E+00
(PID.TID 0000.0001) %MON g__extforcing_g_fv_max       =   0.0000000000000E+00
(PID.TID 0000.0001) %MON g__extforcing_g_fv_min       =   0.0000000000000E+00
(PID.TID 0000.0001) %MON g__extforcing_g_fv_mean      =   0.0000000000000E+00
(PID.TID 0000.0001) %MON g__extforcing_g_fv_sd        =   0.0000000000000E+00
(PID.TID 0000.0001) %MON g__extforcing_g_fv_del2      =   0.0000000000000E+00
(PID.TID 0000.0001) %MON g__g_vcfl_g_uvel_max         =   0.0000000000000E+00
(PID.TID 0000.0001) %MON g__g_vcfl_g_vvel_max         =   0.0000000000000E+00
(PID.TID 0000.0001) %MON g__g_vcfl_g_wvel_max         =   0.0000000000000E+00
(PID.TID 0000.0001) %MON g__g_vcfl_g_W_hf_max         =   0.0000000000000E+00
(PID.TID 0000.0001) // =======================================================
(PID.TID 0000.0001) // End MONITOR dynamic field statistics
(PID.TID 0000.0001) // =======================================================
 cg2d: Sum(rhs),rhsMax =   0.00000000000000E+00  0.00000000000000E+00
 cg2d: Sum(rhs),rhsMax =   2.67112720830909E-12  8.89641373753400E+00
(PID.TID 0000.0001) // =======================================================
(PID.TID 0000.0001) // Begin MONITOR dynamic field statistics
(PID.TID 0000.0001) // =======================================================
(PID.TID 0000.0001) %MON g__time_tsnumber             =                   108
(PID.TID 0000.0001) %MON g__time_secondsf             =   4.6656000000000E+06
(PID.TID 0000.0001) %MON g__dynstat_g_eta_max         =   0.0000000000000E+00
(PID.TID 0000.0001) %MON g__dynstat_g_eta_min         =   0.0000000000000E+00
(PID.TID 0000.0001) %MON g__dynstat_g_eta_mean        =   0.0000000000000E+00
(PID.TID 0000.0001) %MON g__dynstat_g_eta_sd          =   0.0000000000000E+00
(PID.TID 0000.0001) %MON g__dynstat_g_eta_del2        =   0.0000000000000E+00
(PID.TID 0000.0001) %MON g__dynstat_g_uvel_max        =   0.0000000000000E+00
(PID.TID 0000.0001) %MON g__dynstat_g_uvel_min        =   0.0000000000000E+00
(PID.TID 0000.0001) %MON g__dynstat_g_uvel_mean       =   0.0000000000000E+00
(PID.TID 0000.0001) %MON g__dynstat_g_uvel_sd         =   0.0000000000000E+00
(PID.TID 0000.0001) %MON g__dynstat_g_uvel_del2       =   0.0000000000000E+00
(PID.TID 0000.0001) %MON g__dynstat_g_vvel_max        =   0.0000000000000E+00
(PID.TID 0000.0001) %MON g__dynstat_g_vvel_min        =   0.0000000000000E+00
(PID.TID 0000.0001) %MON g__dynstat_g_vvel_mean       =   0.0000000000000E+00
(PID.TID 0000.0001) %MON g__dynstat_g_vvel_sd         =   0.0000000000000E+00
(PID.TID 0000.0001) %MON g__dynstat_g_vvel_del2       =   0.0000000000000E+00
(PID.TID 0000.0001) %MON g__dynstat_g_wvel_max        =   0.0000000000000E+00
(PID.TID 0000.0001) %MON g__dynstat_g_wvel_min        =   0.0000000000000E+00
(PID.TID 0000.0001) %MON g__dynstat_g_wvel_mean       =   0.0000000000000E+00
(PID.TID 0000.0001) %MON g__dynstat_g_wvel_sd         =   0.0000000000000E+00
(PID.TID 0000.0001) %MON g__dynstat_g_wvel_del2       =   0.0000000000000E+00
(PID.TID 0000.0001) %MON g__dynstat_g_theta_max       =   0.0000000000000E+00
(PID.TID 0000.0001) %MON g__dynstat_g_theta_min       =   0.0000000000000E+00
(PID.TID 0000.0001) %MON g__dynstat_g_theta_mean      =   0.0000000000000E+00
(PID.TID 0000.0001) %MON g__dynstat_g_theta_sd        =   0.0000000000000E+00
(PID.TID 0000.0001) %MON g__dynstat_g_theta_del2      =   0.0000000000000E+00
(PID.TID 0000.0001) %MON g__dynstat_g_salt_max        =   0.0000000000000E+00
(PID.TID 0000.0001) %MON g__dynstat_g_salt_min        =   0.0000000000000E+00
(PID.TID 0000.0001) %MON g__dynstat_g_salt_mean       =   0.0000000000000E+00
(PID.TID 0000.0001) %MON g__dynstat_g_salt_sd         =   0.0000000000000E+00
(PID.TID 0000.0001) %MON g__dynstat_g_salt_del2       =   0.0000000000000E+00
(PID.TID 0000.0001) %MON g__dynstat_g_sst_max         =   0.0000000000000E+00
(PID.TID 0000.0001) %MON g__dynstat_g_sst_min         =   0.0000000000000E+00
(PID.TID 0000.0001) %MON g__dynstat_g_sst_mean        =   0.0000000000000E+00
(PID.TID 0000.0001) %MON g__dynstat_g_sst_sd          =   0.0000000000000E+00
(PID.TID 0000.0001) %MON g__dynstat_g_sst_del2        =   0.0000000000000E+00
(PID.TID 0000.0001) %MON g__dynstat_g_sss_max         =   0.0000000000000E+00
(PID.TID 0000.0001) %MON g__dynstat_g_sss_min         =   0.0000000000000E+00
(PID.TID 0000.0001) %MON g__dynstat_g_sss_mean        =   0.0000000000000E+00
(PID.TID 0000.0001) %MON g__dynstat_g_sss_sd          =   0.0000000000000E+00
(PID.TID 0000.0001) %MON g__dynstat_g_sss_del2        =   0.0000000000000E+00
(PID.TID 0000.0001) %MON g__extforcing_g_qnet_max     =   0.0000000000000E+00
(PID.TID 0000.0001) %MON g__extforcing_g_qnet_min     =   0.0000000000000E+00
(PID.TID 0000.0001) %MON g__extforcing_g_qnet_mean    =   0.0000000000000E+00
(PID.TID 0000.0001) %MON g__extforcing_g_qnet_sd      =   0.0000000000000E+00
(PID.TID 0000.0001) %MON g__extforcing_g_qnet_del2    =   0.0000000000000E+00
(PID.TID 0000.0001) %MON g__extforcing_g_empmr_max    =   0.0000000000000E+00
(PID.TID 0000.0001) %MON g__extforcing_g_empmr_min    =   0.0000000000000E+00
(PID.TID 0000.0001) %MON g__extforcing_g_empmr_mean   =   0.0000000000000E+00
(PID.TID 0000.0001) %MON g__extforcing_g_empmr_sd     =   0.0000000000000E+00
(PID.TID 0000.0001) %MON g__extforcing_g_empmr_del2   =   0.0000000000000E+00
(PID.TID 0000.0001) %MON g__extforcing_g_fu_max       =   0.0000000000000E+00
(PID.TID 0000.0001) %MON g__extforcing_g_fu_min       =   0.0000000000000E+00
(PID.TID 0000.0001) %MON g__extforcing_g_fu_mean      =   0.0000000000000E+00
(PID.TID 0000.0001) %MON g__extforcing_g_fu_sd        =   0.0000000000000E+00
(PID.TID 0000.0001) %MON g__extforcing_g_fu_del2      =   0.0000000000000E+00
(PID.TID 0000.0001) %MON g__extforcing_g_fv_max       =   0.0000000000000E+00
(PID.TID 0000.0001) %MON g__extforcing_g_fv_min       =   0.0000000000000E+00
(PID.TID 0000.0001) %MON g__extforcing_g_fv_mean      =   0.0000000000000E+00
(PID.TID 0000.0001) %MON g__extforcing_g_fv_sd        =   0.0000000000000E+00
(PID.TID 0000.0001) %MON g__extforcing_g_fv_del2      =   0.0000000000000E+00
(PID.TID 0000.0001) %MON g__g_vcfl_g_uvel_max         =   0.0000000000000E+00
(PID.TID 0000.0001) %MON g__g_vcfl_g_vvel_max         =   0.0000000000000E+00
(PID.TID 0000.0001) %MON g__g_vcfl_g_wvel_max         =   0.0000000000000E+00
(PID.TID 0000.0001) %MON g__g_vcfl_g_W_hf_max         =   0.0000000000000E+00
(PID.TID 0000.0001) // =======================================================
(PID.TID 0000.0001) // End MONITOR dynamic field statistics
(PID.TID 0000.0001) // =======================================================
 cg2d: Sum(rhs),rhsMax =   0.00000000000000E+00  0.00000000000000E+00
 cg2d: Sum(rhs),rhsMax =   2.81692724701799E-12  8.91497210429915E+00
(PID.TID 0000.0001) // =======================================================
(PID.TID 0000.0001) // Begin MONITOR dynamic field statistics
(PID.TID 0000.0001) // =======================================================
(PID.TID 0000.0001) %MON g__time_tsnumber             =                   109
(PID.TID 0000.0001) %MON g__time_secondsf             =   4.7088000000000E+06
(PID.TID 0000.0001) %MON g__dynstat_g_eta_max         =   0.0000000000000E+00
(PID.TID 0000.0001) %MON g__dynstat_g_eta_min         =   0.0000000000000E+00
(PID.TID 0000.0001) %MON g__dynstat_g_eta_mean        =   0.0000000000000E+00
(PID.TID 0000.0001) %MON g__dynstat_g_eta_sd          =   0.0000000000000E+00
(PID.TID 0000.0001) %MON g__dynstat_g_eta_del2        =   0.0000000000000E+00
(PID.TID 0000.0001) %MON g__dynstat_g_uvel_max        =   0.0000000000000E+00
(PID.TID 0000.0001) %MON g__dynstat_g_uvel_min        =   0.0000000000000E+00
(PID.TID 0000.0001) %MON g__dynstat_g_uvel_mean       =   0.0000000000000E+00
(PID.TID 0000.0001) %MON g__dynstat_g_uvel_sd         =   0.0000000000000E+00
(PID.TID 0000.0001) %MON g__dynstat_g_uvel_del2       =   0.0000000000000E+00
(PID.TID 0000.0001) %MON g__dynstat_g_vvel_max        =   0.0000000000000E+00
(PID.TID 0000.0001) %MON g__dynstat_g_vvel_min        =   0.0000000000000E+00
(PID.TID 0000.0001) %MON g__dynstat_g_vvel_mean       =   0.0000000000000E+00
(PID.TID 0000.0001) %MON g__dynstat_g_vvel_sd         =   0.0000000000000E+00
(PID.TID 0000.0001) %MON g__dynstat_g_vvel_del2       =   0.0000000000000E+00
(PID.TID 0000.0001) %MON g__dynstat_g_wvel_max        =   0.0000000000000E+00
(PID.TID 0000.0001) %MON g__dynstat_g_wvel_min        =   0.0000000000000E+00
(PID.TID 0000.0001) %MON g__dynstat_g_wvel_mean       =   0.0000000000000E+00
(PID.TID 0000.0001) %MON g__dynstat_g_wvel_sd         =   0.0000000000000E+00
(PID.TID 0000.0001) %MON g__dynstat_g_wvel_del2       =   0.0000000000000E+00
(PID.TID 0000.0001) %MON g__dynstat_g_theta_max       =   0.0000000000000E+00
(PID.TID 0000.0001) %MON g__dynstat_g_theta_min       =   0.0000000000000E+00
(PID.TID 0000.0001) %MON g__dynstat_g_theta_mean      =   0.0000000000000E+00
(PID.TID 0000.0001) %MON g__dynstat_g_theta_sd        =   0.0000000000000E+00
(PID.TID 0000.0001) %MON g__dynstat_g_theta_del2      =   0.0000000000000E+00
(PID.TID 0000.0001) %MON g__dynstat_g_salt_max        =   0.0000000000000E+00
(PID.TID 0000.0001) %MON g__dynstat_g_salt_min        =   0.0000000000000E+00
(PID.TID 0000.0001) %MON g__dynstat_g_salt_mean       =   0.0000000000000E+00
(PID.TID 0000.0001) %MON g__dynstat_g_salt_sd         =   0.0000000000000E+00
(PID.TID 0000.0001) %MON g__dynstat_g_salt_del2       =   0.0000000000000E+00
(PID.TID 0000.0001) %MON g__dynstat_g_sst_max         =   0.0000000000000E+00
(PID.TID 0000.0001) %MON g__dynstat_g_sst_min         =   0.0000000000000E+00
(PID.TID 0000.0001) %MON g__dynstat_g_sst_mean        =   0.0000000000000E+00
(PID.TID 0000.0001) %MON g__dynstat_g_sst_sd          =   0.0000000000000E+00
(PID.TID 0000.0001) %MON g__dynstat_g_sst_del2        =   0.0000000000000E+00
(PID.TID 0000.0001) %MON g__dynstat_g_sss_max         =   0.0000000000000E+00
(PID.TID 0000.0001) %MON g__dynstat_g_sss_min         =   0.0000000000000E+00
(PID.TID 0000.0001) %MON g__dynstat_g_sss_mean        =   0.0000000000000E+00
(PID.TID 0000.0001) %MON g__dynstat_g_sss_sd          =   0.0000000000000E+00
(PID.TID 0000.0001) %MON g__dynstat_g_sss_del2        =   0.0000000000000E+00
(PID.TID 0000.0001) %MON g__extforcing_g_qnet_max     =   0.0000000000000E+00
(PID.TID 0000.0001) %MON g__extforcing_g_qnet_min     =   0.0000000000000E+00
(PID.TID 0000.0001) %MON g__extforcing_g_qnet_mean    =   0.0000000000000E+00
(PID.TID 0000.0001) %MON g__extforcing_g_qnet_sd      =   0.0000000000000E+00
(PID.TID 0000.0001) %MON g__extforcing_g_qnet_del2    =   0.0000000000000E+00
(PID.TID 0000.0001) %MON g__extforcing_g_empmr_max    =   0.0000000000000E+00
(PID.TID 0000.0001) %MON g__extforcing_g_empmr_min    =   0.0000000000000E+00
(PID.TID 0000.0001) %MON g__extforcing_g_empmr_mean   =   0.0000000000000E+00
(PID.TID 0000.0001) %MON g__extforcing_g_empmr_sd     =   0.0000000000000E+00
(PID.TID 0000.0001) %MON g__extforcing_g_empmr_del2   =   0.0000000000000E+00
(PID.TID 0000.0001) %MON g__extforcing_g_fu_max       =   0.0000000000000E+00
(PID.TID 0000.0001) %MON g__extforcing_g_fu_min       =   0.0000000000000E+00
(PID.TID 0000.0001) %MON g__extforcing_g_fu_mean      =   0.0000000000000E+00
(PID.TID 0000.0001) %MON g__extforcing_g_fu_sd        =   0.0000000000000E+00
(PID.TID 0000.0001) %MON g__extforcing_g_fu_del2      =   0.0000000000000E+00
(PID.TID 0000.0001) %MON g__extforcing_g_fv_max       =   0.0000000000000E+00
(PID.TID 0000.0001) %MON g__extforcing_g_fv_min       =   0.0000000000000E+00
(PID.TID 0000.0001) %MON g__extforcing_g_fv_mean      =   0.0000000000000E+00
(PID.TID 0000.0001) %MON g__extforcing_g_fv_sd        =   0.0000000000000E+00
(PID.TID 0000.0001) %MON g__extforcing_g_fv_del2      =   0.0000000000000E+00
(PID.TID 0000.0001) %MON g__g_vcfl_g_uvel_max         =   0.0000000000000E+00
(PID.TID 0000.0001) %MON g__g_vcfl_g_vvel_max         =   0.0000000000000E+00
(PID.TID 0000.0001) %MON g__g_vcfl_g_wvel_max         =   0.0000000000000E+00
(PID.TID 0000.0001) %MON g__g_vcfl_g_W_hf_max         =   0.0000000000000E+00
(PID.TID 0000.0001) // =======================================================
(PID.TID 0000.0001) // End MONITOR dynamic field statistics
(PID.TID 0000.0001) // =======================================================
 cg2d: Sum(rhs),rhsMax =   0.00000000000000E+00  0.00000000000000E+00
 cg2d: Sum(rhs),rhsMax =   2.43038228431303E-12  8.91793955647200E+00
(PID.TID 0000.0001) // =======================================================
(PID.TID 0000.0001) // Begin MONITOR dynamic field statistics
(PID.TID 0000.0001) // =======================================================
(PID.TID 0000.0001) %MON g__time_tsnumber             =                   110
(PID.TID 0000.0001) %MON g__time_secondsf             =   4.7520000000000E+06
(PID.TID 0000.0001) %MON g__dynstat_g_eta_max         =   0.0000000000000E+00
(PID.TID 0000.0001) %MON g__dynstat_g_eta_min         =   0.0000000000000E+00
(PID.TID 0000.0001) %MON g__dynstat_g_eta_mean        =   0.0000000000000E+00
(PID.TID 0000.0001) %MON g__dynstat_g_eta_sd          =   0.0000000000000E+00
(PID.TID 0000.0001) %MON g__dynstat_g_eta_del2        =   0.0000000000000E+00
(PID.TID 0000.0001) %MON g__dynstat_g_uvel_max        =   0.0000000000000E+00
(PID.TID 0000.0001) %MON g__dynstat_g_uvel_min        =   0.0000000000000E+00
(PID.TID 0000.0001) %MON g__dynstat_g_uvel_mean       =   0.0000000000000E+00
(PID.TID 0000.0001) %MON g__dynstat_g_uvel_sd         =   0.0000000000000E+00
(PID.TID 0000.0001) %MON g__dynstat_g_uvel_del2       =   0.0000000000000E+00
(PID.TID 0000.0001) %MON g__dynstat_g_vvel_max        =   0.0000000000000E+00
(PID.TID 0000.0001) %MON g__dynstat_g_vvel_min        =   0.0000000000000E+00
(PID.TID 0000.0001) %MON g__dynstat_g_vvel_mean       =   0.0000000000000E+00
(PID.TID 0000.0001) %MON g__dynstat_g_vvel_sd         =   0.0000000000000E+00
(PID.TID 0000.0001) %MON g__dynstat_g_vvel_del2       =   0.0000000000000E+00
(PID.TID 0000.0001) %MON g__dynstat_g_wvel_max        =   0.0000000000000E+00
(PID.TID 0000.0001) %MON g__dynstat_g_wvel_min        =   0.0000000000000E+00
(PID.TID 0000.0001) %MON g__dynstat_g_wvel_mean       =   0.0000000000000E+00
(PID.TID 0000.0001) %MON g__dynstat_g_wvel_sd         =   0.0000000000000E+00
(PID.TID 0000.0001) %MON g__dynstat_g_wvel_del2       =   0.0000000000000E+00
(PID.TID 0000.0001) %MON g__dynstat_g_theta_max       =   0.0000000000000E+00
(PID.TID 0000.0001) %MON g__dynstat_g_theta_min       =   0.0000000000000E+00
(PID.TID 0000.0001) %MON g__dynstat_g_theta_mean      =   0.0000000000000E+00
(PID.TID 0000.0001) %MON g__dynstat_g_theta_sd        =   0.0000000000000E+00
(PID.TID 0000.0001) %MON g__dynstat_g_theta_del2      =   0.0000000000000E+00
(PID.TID 0000.0001) %MON g__dynstat_g_salt_max        =   0.0000000000000E+00
(PID.TID 0000.0001) %MON g__dynstat_g_salt_min        =   0.0000000000000E+00
(PID.TID 0000.0001) %MON g__dynstat_g_salt_mean       =   0.0000000000000E+00
(PID.TID 0000.0001) %MON g__dynstat_g_salt_sd         =   0.0000000000000E+00
(PID.TID 0000.0001) %MON g__dynstat_g_salt_del2       =   0.0000000000000E+00
(PID.TID 0000.0001) %MON g__dynstat_g_sst_max         =   0.0000000000000E+00
(PID.TID 0000.0001) %MON g__dynstat_g_sst_min         =   0.0000000000000E+00
(PID.TID 0000.0001) %MON g__dynstat_g_sst_mean        =   0.0000000000000E+00
(PID.TID 0000.0001) %MON g__dynstat_g_sst_sd          =   0.0000000000000E+00
(PID.TID 0000.0001) %MON g__dynstat_g_sst_del2        =   0.0000000000000E+00
(PID.TID 0000.0001) %MON g__dynstat_g_sss_max         =   0.0000000000000E+00
(PID.TID 0000.0001) %MON g__dynstat_g_sss_min         =   0.0000000000000E+00
(PID.TID 0000.0001) %MON g__dynstat_g_sss_mean        =   0.0000000000000E+00
(PID.TID 0000.0001) %MON g__dynstat_g_sss_sd          =   0.0000000000000E+00
(PID.TID 0000.0001) %MON g__dynstat_g_sss_del2        =   0.0000000000000E+00
(PID.TID 0000.0001) %MON g__extforcing_g_qnet_max     =   0.0000000000000E+00
(PID.TID 0000.0001) %MON g__extforcing_g_qnet_min     =   0.0000000000000E+00
(PID.TID 0000.0001) %MON g__extforcing_g_qnet_mean    =   0.0000000000000E+00
(PID.TID 0000.0001) %MON g__extforcing_g_qnet_sd      =   0.0000000000000E+00
(PID.TID 0000.0001) %MON g__extforcing_g_qnet_del2    =   0.0000000000000E+00
(PID.TID 0000.0001) %MON g__extforcing_g_empmr_max    =   0.0000000000000E+00
(PID.TID 0000.0001) %MON g__extforcing_g_empmr_min    =   0.0000000000000E+00
(PID.TID 0000.0001) %MON g__extforcing_g_empmr_mean   =   0.0000000000000E+00
(PID.TID 0000.0001) %MON g__extforcing_g_empmr_sd     =   0.0000000000000E+00
(PID.TID 0000.0001) %MON g__extforcing_g_empmr_del2   =   0.0000000000000E+00
(PID.TID 0000.0001) %MON g__extforcing_g_fu_max       =   0.0000000000000E+00
(PID.TID 0000.0001) %MON g__extforcing_g_fu_min       =   0.0000000000000E+00
(PID.TID 0000.0001) %MON g__extforcing_g_fu_mean      =   0.0000000000000E+00
(PID.TID 0000.0001) %MON g__extforcing_g_fu_sd        =   0.0000000000000E+00
(PID.TID 0000.0001) %MON g__extforcing_g_fu_del2      =   0.0000000000000E+00
(PID.TID 0000.0001) %MON g__extforcing_g_fv_max       =   0.0000000000000E+00
(PID.TID 0000.0001) %MON g__extforcing_g_fv_min       =   0.0000000000000E+00
(PID.TID 0000.0001) %MON g__extforcing_g_fv_mean      =   0.0000000000000E+00
(PID.TID 0000.0001) %MON g__extforcing_g_fv_sd        =   0.0000000000000E+00
(PID.TID 0000.0001) %MON g__extforcing_g_fv_del2      =   0.0000000000000E+00
(PID.TID 0000.0001) %MON g__g_vcfl_g_uvel_max         =   0.0000000000000E+00
(PID.TID 0000.0001) %MON g__g_vcfl_g_vvel_max         =   0.0000000000000E+00
(PID.TID 0000.0001) %MON g__g_vcfl_g_wvel_max         =   0.0000000000000E+00
(PID.TID 0000.0001) %MON g__g_vcfl_g_W_hf_max         =   0.0000000000000E+00
(PID.TID 0000.0001) // =======================================================
(PID.TID 0000.0001) // End MONITOR dynamic field statistics
(PID.TID 0000.0001) // =======================================================
 myIter=  110
(PID.TID 0000.0001) // Model state written, timestep       110
(PID.TID 0000.0001) 
 cg2d: Sum(rhs),rhsMax =   0.00000000000000E+00  0.00000000000000E+00
 cg2d: Sum(rhs),rhsMax =   2.76502432061676E-12  8.90561081994307E+00
(PID.TID 0000.0001) // =======================================================
(PID.TID 0000.0001) // Begin MONITOR dynamic field statistics
(PID.TID 0000.0001) // =======================================================
(PID.TID 0000.0001) %MON g__time_tsnumber             =                   111
(PID.TID 0000.0001) %MON g__time_secondsf             =   4.7952000000000E+06
(PID.TID 0000.0001) %MON g__dynstat_g_eta_max         =   0.0000000000000E+00
(PID.TID 0000.0001) %MON g__dynstat_g_eta_min         =   0.0000000000000E+00
(PID.TID 0000.0001) %MON g__dynstat_g_eta_mean        =   0.0000000000000E+00
(PID.TID 0000.0001) %MON g__dynstat_g_eta_sd          =   0.0000000000000E+00
(PID.TID 0000.0001) %MON g__dynstat_g_eta_del2        =   0.0000000000000E+00
(PID.TID 0000.0001) %MON g__dynstat_g_uvel_max        =   0.0000000000000E+00
(PID.TID 0000.0001) %MON g__dynstat_g_uvel_min        =   0.0000000000000E+00
(PID.TID 0000.0001) %MON g__dynstat_g_uvel_mean       =   0.0000000000000E+00
(PID.TID 0000.0001) %MON g__dynstat_g_uvel_sd         =   0.0000000000000E+00
(PID.TID 0000.0001) %MON g__dynstat_g_uvel_del2       =   0.0000000000000E+00
(PID.TID 0000.0001) %MON g__dynstat_g_vvel_max        =   0.0000000000000E+00
(PID.TID 0000.0001) %MON g__dynstat_g_vvel_min        =   0.0000000000000E+00
(PID.TID 0000.0001) %MON g__dynstat_g_vvel_mean       =   0.0000000000000E+00
(PID.TID 0000.0001) %MON g__dynstat_g_vvel_sd         =   0.0000000000000E+00
(PID.TID 0000.0001) %MON g__dynstat_g_vvel_del2       =   0.0000000000000E+00
(PID.TID 0000.0001) %MON g__dynstat_g_wvel_max        =   0.0000000000000E+00
(PID.TID 0000.0001) %MON g__dynstat_g_wvel_min        =   0.0000000000000E+00
(PID.TID 0000.0001) %MON g__dynstat_g_wvel_mean       =   0.0000000000000E+00
(PID.TID 0000.0001) %MON g__dynstat_g_wvel_sd         =   0.0000000000000E+00
(PID.TID 0000.0001) %MON g__dynstat_g_wvel_del2       =   0.0000000000000E+00
(PID.TID 0000.0001) %MON g__dynstat_g_theta_max       =   0.0000000000000E+00
(PID.TID 0000.0001) %MON g__dynstat_g_theta_min       =   0.0000000000000E+00
(PID.TID 0000.0001) %MON g__dynstat_g_theta_mean      =   0.0000000000000E+00
(PID.TID 0000.0001) %MON g__dynstat_g_theta_sd        =   0.0000000000000E+00
(PID.TID 0000.0001) %MON g__dynstat_g_theta_del2      =   0.0000000000000E+00
(PID.TID 0000.0001) %MON g__dynstat_g_salt_max        =   0.0000000000000E+00
(PID.TID 0000.0001) %MON g__dynstat_g_salt_min        =   0.0000000000000E+00
(PID.TID 0000.0001) %MON g__dynstat_g_salt_mean       =   0.0000000000000E+00
(PID.TID 0000.0001) %MON g__dynstat_g_salt_sd         =   0.0000000000000E+00
(PID.TID 0000.0001) %MON g__dynstat_g_salt_del2       =   0.0000000000000E+00
(PID.TID 0000.0001) %MON g__dynstat_g_sst_max         =   0.0000000000000E+00
(PID.TID 0000.0001) %MON g__dynstat_g_sst_min         =   0.0000000000000E+00
(PID.TID 0000.0001) %MON g__dynstat_g_sst_mean        =   0.0000000000000E+00
(PID.TID 0000.0001) %MON g__dynstat_g_sst_sd          =   0.0000000000000E+00
(PID.TID 0000.0001) %MON g__dynstat_g_sst_del2        =   0.0000000000000E+00
(PID.TID 0000.0001) %MON g__dynstat_g_sss_max         =   0.0000000000000E+00
(PID.TID 0000.0001) %MON g__dynstat_g_sss_min         =   0.0000000000000E+00
(PID.TID 0000.0001) %MON g__dynstat_g_sss_mean        =   0.0000000000000E+00
(PID.TID 0000.0001) %MON g__dynstat_g_sss_sd          =   0.0000000000000E+00
(PID.TID 0000.0001) %MON g__dynstat_g_sss_del2        =   0.0000000000000E+00
(PID.TID 0000.0001) %MON g__extforcing_g_qnet_max     =   0.0000000000000E+00
(PID.TID 0000.0001) %MON g__extforcing_g_qnet_min     =   0.0000000000000E+00
(PID.TID 0000.0001) %MON g__extforcing_g_qnet_mean    =   0.0000000000000E+00
(PID.TID 0000.0001) %MON g__extforcing_g_qnet_sd      =   0.0000000000000E+00
(PID.TID 0000.0001) %MON g__extforcing_g_qnet_del2    =   0.0000000000000E+00
(PID.TID 0000.0001) %MON g__extforcing_g_empmr_max    =   0.0000000000000E+00
(PID.TID 0000.0001) %MON g__extforcing_g_empmr_min    =   0.0000000000000E+00
(PID.TID 0000.0001) %MON g__extforcing_g_empmr_mean   =   0.0000000000000E+00
(PID.TID 0000.0001) %MON g__extforcing_g_empmr_sd     =   0.0000000000000E+00
(PID.TID 0000.0001) %MON g__extforcing_g_empmr_del2   =   0.0000000000000E+00
(PID.TID 0000.0001) %MON g__extforcing_g_fu_max       =   0.0000000000000E+00
(PID.TID 0000.0001) %MON g__extforcing_g_fu_min       =   0.0000000000000E+00
(PID.TID 0000.0001) %MON g__extforcing_g_fu_mean      =   0.0000000000000E+00
(PID.TID 0000.0001) %MON g__extforcing_g_fu_sd        =   0.0000000000000E+00
(PID.TID 0000.0001) %MON g__extforcing_g_fu_del2      =   0.0000000000000E+00
(PID.TID 0000.0001) %MON g__extforcing_g_fv_max       =   0.0000000000000E+00
(PID.TID 0000.0001) %MON g__extforcing_g_fv_min       =   0.0000000000000E+00
(PID.TID 0000.0001) %MON g__extforcing_g_fv_mean      =   0.0000000000000E+00
(PID.TID 0000.0001) %MON g__extforcing_g_fv_sd        =   0.0000000000000E+00
(PID.TID 0000.0001) %MON g__extforcing_g_fv_del2      =   0.0000000000000E+00
(PID.TID 0000.0001) %MON g__g_vcfl_g_uvel_max         =   0.0000000000000E+00
(PID.TID 0000.0001) %MON g__g_vcfl_g_vvel_max         =   0.0000000000000E+00
(PID.TID 0000.0001) %MON g__g_vcfl_g_wvel_max         =   0.0000000000000E+00
(PID.TID 0000.0001) %MON g__g_vcfl_g_W_hf_max         =   0.0000000000000E+00
(PID.TID 0000.0001) // =======================================================
(PID.TID 0000.0001) // End MONITOR dynamic field statistics
(PID.TID 0000.0001) // =======================================================
 cg2d: Sum(rhs),rhsMax =   0.00000000000000E+00  0.00000000000000E+00
 cg2d: Sum(rhs),rhsMax =   1.87912185811712E-12  8.87885337906477E+00
(PID.TID 0000.0001) // =======================================================
(PID.TID 0000.0001) // Begin MONITOR dynamic field statistics
(PID.TID 0000.0001) // =======================================================
(PID.TID 0000.0001) %MON g__time_tsnumber             =                   112
(PID.TID 0000.0001) %MON g__time_secondsf             =   4.8384000000000E+06
(PID.TID 0000.0001) %MON g__dynstat_g_eta_max         =   0.0000000000000E+00
(PID.TID 0000.0001) %MON g__dynstat_g_eta_min         =   0.0000000000000E+00
(PID.TID 0000.0001) %MON g__dynstat_g_eta_mean        =   0.0000000000000E+00
(PID.TID 0000.0001) %MON g__dynstat_g_eta_sd          =   0.0000000000000E+00
(PID.TID 0000.0001) %MON g__dynstat_g_eta_del2        =   0.0000000000000E+00
(PID.TID 0000.0001) %MON g__dynstat_g_uvel_max        =   0.0000000000000E+00
(PID.TID 0000.0001) %MON g__dynstat_g_uvel_min        =   0.0000000000000E+00
(PID.TID 0000.0001) %MON g__dynstat_g_uvel_mean       =   0.0000000000000E+00
(PID.TID 0000.0001) %MON g__dynstat_g_uvel_sd         =   0.0000000000000E+00
(PID.TID 0000.0001) %MON g__dynstat_g_uvel_del2       =   0.0000000000000E+00
(PID.TID 0000.0001) %MON g__dynstat_g_vvel_max        =   0.0000000000000E+00
(PID.TID 0000.0001) %MON g__dynstat_g_vvel_min        =   0.0000000000000E+00
(PID.TID 0000.0001) %MON g__dynstat_g_vvel_mean       =   0.0000000000000E+00
(PID.TID 0000.0001) %MON g__dynstat_g_vvel_sd         =   0.0000000000000E+00
(PID.TID 0000.0001) %MON g__dynstat_g_vvel_del2       =   0.0000000000000E+00
(PID.TID 0000.0001) %MON g__dynstat_g_wvel_max        =   0.0000000000000E+00
(PID.TID 0000.0001) %MON g__dynstat_g_wvel_min        =   0.0000000000000E+00
(PID.TID 0000.0001) %MON g__dynstat_g_wvel_mean       =   0.0000000000000E+00
(PID.TID 0000.0001) %MON g__dynstat_g_wvel_sd         =   0.0000000000000E+00
(PID.TID 0000.0001) %MON g__dynstat_g_wvel_del2       =   0.0000000000000E+00
(PID.TID 0000.0001) %MON g__dynstat_g_theta_max       =   0.0000000000000E+00
(PID.TID 0000.0001) %MON g__dynstat_g_theta_min       =   0.0000000000000E+00
(PID.TID 0000.0001) %MON g__dynstat_g_theta_mean      =   0.0000000000000E+00
(PID.TID 0000.0001) %MON g__dynstat_g_theta_sd        =   0.0000000000000E+00
(PID.TID 0000.0001) %MON g__dynstat_g_theta_del2      =   0.0000000000000E+00
(PID.TID 0000.0001) %MON g__dynstat_g_salt_max        =   0.0000000000000E+00
(PID.TID 0000.0001) %MON g__dynstat_g_salt_min        =   0.0000000000000E+00
(PID.TID 0000.0001) %MON g__dynstat_g_salt_mean       =   0.0000000000000E+00
(PID.TID 0000.0001) %MON g__dynstat_g_salt_sd         =   0.0000000000000E+00
(PID.TID 0000.0001) %MON g__dynstat_g_salt_del2       =   0.0000000000000E+00
(PID.TID 0000.0001) %MON g__dynstat_g_sst_max         =   0.0000000000000E+00
(PID.TID 0000.0001) %MON g__dynstat_g_sst_min         =   0.0000000000000E+00
(PID.TID 0000.0001) %MON g__dynstat_g_sst_mean        =   0.0000000000000E+00
(PID.TID 0000.0001) %MON g__dynstat_g_sst_sd          =   0.0000000000000E+00
(PID.TID 0000.0001) %MON g__dynstat_g_sst_del2        =   0.0000000000000E+00
(PID.TID 0000.0001) %MON g__dynstat_g_sss_max         =   0.0000000000000E+00
(PID.TID 0000.0001) %MON g__dynstat_g_sss_min         =   0.0000000000000E+00
(PID.TID 0000.0001) %MON g__dynstat_g_sss_mean        =   0.0000000000000E+00
(PID.TID 0000.0001) %MON g__dynstat_g_sss_sd          =   0.0000000000000E+00
(PID.TID 0000.0001) %MON g__dynstat_g_sss_del2        =   0.0000000000000E+00
(PID.TID 0000.0001) %MON g__extforcing_g_qnet_max     =   0.0000000000000E+00
(PID.TID 0000.0001) %MON g__extforcing_g_qnet_min     =   0.0000000000000E+00
(PID.TID 0000.0001) %MON g__extforcing_g_qnet_mean    =   0.0000000000000E+00
(PID.TID 0000.0001) %MON g__extforcing_g_qnet_sd      =   0.0000000000000E+00
(PID.TID 0000.0001) %MON g__extforcing_g_qnet_del2    =   0.0000000000000E+00
(PID.TID 0000.0001) %MON g__extforcing_g_empmr_max    =   0.0000000000000E+00
(PID.TID 0000.0001) %MON g__extforcing_g_empmr_min    =   0.0000000000000E+00
(PID.TID 0000.0001) %MON g__extforcing_g_empmr_mean   =   0.0000000000000E+00
(PID.TID 0000.0001) %MON g__extforcing_g_empmr_sd     =   0.0000000000000E+00
(PID.TID 0000.0001) %MON g__extforcing_g_empmr_del2   =   0.0000000000000E+00
(PID.TID 0000.0001) %MON g__extforcing_g_fu_max       =   0.0000000000000E+00
(PID.TID 0000.0001) %MON g__extforcing_g_fu_min       =   0.0000000000000E+00
(PID.TID 0000.0001) %MON g__extforcing_g_fu_mean      =   0.0000000000000E+00
(PID.TID 0000.0001) %MON g__extforcing_g_fu_sd        =   0.0000000000000E+00
(PID.TID 0000.0001) %MON g__extforcing_g_fu_del2      =   0.0000000000000E+00
(PID.TID 0000.0001) %MON g__extforcing_g_fv_max       =   0.0000000000000E+00
(PID.TID 0000.0001) %MON g__extforcing_g_fv_min       =   0.0000000000000E+00
(PID.TID 0000.0001) %MON g__extforcing_g_fv_mean      =   0.0000000000000E+00
(PID.TID 0000.0001) %MON g__extforcing_g_fv_sd        =   0.0000000000000E+00
(PID.TID 0000.0001) %MON g__extforcing_g_fv_del2      =   0.0000000000000E+00
(PID.TID 0000.0001) %MON g__g_vcfl_g_uvel_max         =   0.0000000000000E+00
(PID.TID 0000.0001) %MON g__g_vcfl_g_vvel_max         =   0.0000000000000E+00
(PID.TID 0000.0001) %MON g__g_vcfl_g_wvel_max         =   0.0000000000000E+00
(PID.TID 0000.0001) %MON g__g_vcfl_g_W_hf_max         =   0.0000000000000E+00
(PID.TID 0000.0001) // =======================================================
(PID.TID 0000.0001) // End MONITOR dynamic field statistics
(PID.TID 0000.0001) // =======================================================
 cg2d: Sum(rhs),rhsMax =   0.00000000000000E+00  0.00000000000000E+00
 cg2d: Sum(rhs),rhsMax =   2.69159000643171E-12  8.83905900826780E+00
(PID.TID 0000.0001) // =======================================================
(PID.TID 0000.0001) // Begin MONITOR dynamic field statistics
(PID.TID 0000.0001) // =======================================================
(PID.TID 0000.0001) %MON g__time_tsnumber             =                   113
(PID.TID 0000.0001) %MON g__time_secondsf             =   4.8816000000000E+06
(PID.TID 0000.0001) %MON g__dynstat_g_eta_max         =   0.0000000000000E+00
(PID.TID 0000.0001) %MON g__dynstat_g_eta_min         =   0.0000000000000E+00
(PID.TID 0000.0001) %MON g__dynstat_g_eta_mean        =   0.0000000000000E+00
(PID.TID 0000.0001) %MON g__dynstat_g_eta_sd          =   0.0000000000000E+00
(PID.TID 0000.0001) %MON g__dynstat_g_eta_del2        =   0.0000000000000E+00
(PID.TID 0000.0001) %MON g__dynstat_g_uvel_max        =   0.0000000000000E+00
(PID.TID 0000.0001) %MON g__dynstat_g_uvel_min        =   0.0000000000000E+00
(PID.TID 0000.0001) %MON g__dynstat_g_uvel_mean       =   0.0000000000000E+00
(PID.TID 0000.0001) %MON g__dynstat_g_uvel_sd         =   0.0000000000000E+00
(PID.TID 0000.0001) %MON g__dynstat_g_uvel_del2       =   0.0000000000000E+00
(PID.TID 0000.0001) %MON g__dynstat_g_vvel_max        =   0.0000000000000E+00
(PID.TID 0000.0001) %MON g__dynstat_g_vvel_min        =   0.0000000000000E+00
(PID.TID 0000.0001) %MON g__dynstat_g_vvel_mean       =   0.0000000000000E+00
(PID.TID 0000.0001) %MON g__dynstat_g_vvel_sd         =   0.0000000000000E+00
(PID.TID 0000.0001) %MON g__dynstat_g_vvel_del2       =   0.0000000000000E+00
(PID.TID 0000.0001) %MON g__dynstat_g_wvel_max        =   0.0000000000000E+00
(PID.TID 0000.0001) %MON g__dynstat_g_wvel_min        =   0.0000000000000E+00
(PID.TID 0000.0001) %MON g__dynstat_g_wvel_mean       =   0.0000000000000E+00
(PID.TID 0000.0001) %MON g__dynstat_g_wvel_sd         =   0.0000000000000E+00
(PID.TID 0000.0001) %MON g__dynstat_g_wvel_del2       =   0.0000000000000E+00
(PID.TID 0000.0001) %MON g__dynstat_g_theta_max       =   0.0000000000000E+00
(PID.TID 0000.0001) %MON g__dynstat_g_theta_min       =   0.0000000000000E+00
(PID.TID 0000.0001) %MON g__dynstat_g_theta_mean      =   0.0000000000000E+00
(PID.TID 0000.0001) %MON g__dynstat_g_theta_sd        =   0.0000000000000E+00
(PID.TID 0000.0001) %MON g__dynstat_g_theta_del2      =   0.0000000000000E+00
(PID.TID 0000.0001) %MON g__dynstat_g_salt_max        =   0.0000000000000E+00
(PID.TID 0000.0001) %MON g__dynstat_g_salt_min        =   0.0000000000000E+00
(PID.TID 0000.0001) %MON g__dynstat_g_salt_mean       =   0.0000000000000E+00
(PID.TID 0000.0001) %MON g__dynstat_g_salt_sd         =   0.0000000000000E+00
(PID.TID 0000.0001) %MON g__dynstat_g_salt_del2       =   0.0000000000000E+00
(PID.TID 0000.0001) %MON g__dynstat_g_sst_max         =   0.0000000000000E+00
(PID.TID 0000.0001) %MON g__dynstat_g_sst_min         =   0.0000000000000E+00
(PID.TID 0000.0001) %MON g__dynstat_g_sst_mean        =   0.0000000000000E+00
(PID.TID 0000.0001) %MON g__dynstat_g_sst_sd          =   0.0000000000000E+00
(PID.TID 0000.0001) %MON g__dynstat_g_sst_del2        =   0.0000000000000E+00
(PID.TID 0000.0001) %MON g__dynstat_g_sss_max         =   0.0000000000000E+00
(PID.TID 0000.0001) %MON g__dynstat_g_sss_min         =   0.0000000000000E+00
(PID.TID 0000.0001) %MON g__dynstat_g_sss_mean        =   0.0000000000000E+00
(PID.TID 0000.0001) %MON g__dynstat_g_sss_sd          =   0.0000000000000E+00
(PID.TID 0000.0001) %MON g__dynstat_g_sss_del2        =   0.0000000000000E+00
(PID.TID 0000.0001) %MON g__extforcing_g_qnet_max     =   0.0000000000000E+00
(PID.TID 0000.0001) %MON g__extforcing_g_qnet_min     =   0.0000000000000E+00
(PID.TID 0000.0001) %MON g__extforcing_g_qnet_mean    =   0.0000000000000E+00
(PID.TID 0000.0001) %MON g__extforcing_g_qnet_sd      =   0.0000000000000E+00
(PID.TID 0000.0001) %MON g__extforcing_g_qnet_del2    =   0.0000000000000E+00
(PID.TID 0000.0001) %MON g__extforcing_g_empmr_max    =   0.0000000000000E+00
(PID.TID 0000.0001) %MON g__extforcing_g_empmr_min    =   0.0000000000000E+00
(PID.TID 0000.0001) %MON g__extforcing_g_empmr_mean   =   0.0000000000000E+00
(PID.TID 0000.0001) %MON g__extforcing_g_empmr_sd     =   0.0000000000000E+00
(PID.TID 0000.0001) %MON g__extforcing_g_empmr_del2   =   0.0000000000000E+00
(PID.TID 0000.0001) %MON g__extforcing_g_fu_max       =   0.0000000000000E+00
(PID.TID 0000.0001) %MON g__extforcing_g_fu_min       =   0.0000000000000E+00
(PID.TID 0000.0001) %MON g__extforcing_g_fu_mean      =   0.0000000000000E+00
(PID.TID 0000.0001) %MON g__extforcing_g_fu_sd        =   0.0000000000000E+00
(PID.TID 0000.0001) %MON g__extforcing_g_fu_del2      =   0.0000000000000E+00
(PID.TID 0000.0001) %MON g__extforcing_g_fv_max       =   0.0000000000000E+00
(PID.TID 0000.0001) %MON g__extforcing_g_fv_min       =   0.0000000000000E+00
(PID.TID 0000.0001) %MON g__extforcing_g_fv_mean      =   0.0000000000000E+00
(PID.TID 0000.0001) %MON g__extforcing_g_fv_sd        =   0.0000000000000E+00
(PID.TID 0000.0001) %MON g__extforcing_g_fv_del2      =   0.0000000000000E+00
(PID.TID 0000.0001) %MON g__g_vcfl_g_uvel_max         =   0.0000000000000E+00
(PID.TID 0000.0001) %MON g__g_vcfl_g_vvel_max         =   0.0000000000000E+00
(PID.TID 0000.0001) %MON g__g_vcfl_g_wvel_max         =   0.0000000000000E+00
(PID.TID 0000.0001) %MON g__g_vcfl_g_W_hf_max         =   0.0000000000000E+00
(PID.TID 0000.0001) // =======================================================
(PID.TID 0000.0001) // End MONITOR dynamic field statistics
(PID.TID 0000.0001) // =======================================================
 cg2d: Sum(rhs),rhsMax =   0.00000000000000E+00  0.00000000000000E+00
 cg2d: Sum(rhs),rhsMax =   2.86636686608333E-12  8.78807252840719E+00
(PID.TID 0000.0001) // =======================================================
(PID.TID 0000.0001) // Begin MONITOR dynamic field statistics
(PID.TID 0000.0001) // =======================================================
(PID.TID 0000.0001) %MON g__time_tsnumber             =                   114
(PID.TID 0000.0001) %MON g__time_secondsf             =   4.9248000000000E+06
(PID.TID 0000.0001) %MON g__dynstat_g_eta_max         =   0.0000000000000E+00
(PID.TID 0000.0001) %MON g__dynstat_g_eta_min         =   0.0000000000000E+00
(PID.TID 0000.0001) %MON g__dynstat_g_eta_mean        =   0.0000000000000E+00
(PID.TID 0000.0001) %MON g__dynstat_g_eta_sd          =   0.0000000000000E+00
(PID.TID 0000.0001) %MON g__dynstat_g_eta_del2        =   0.0000000000000E+00
(PID.TID 0000.0001) %MON g__dynstat_g_uvel_max        =   0.0000000000000E+00
(PID.TID 0000.0001) %MON g__dynstat_g_uvel_min        =   0.0000000000000E+00
(PID.TID 0000.0001) %MON g__dynstat_g_uvel_mean       =   0.0000000000000E+00
(PID.TID 0000.0001) %MON g__dynstat_g_uvel_sd         =   0.0000000000000E+00
(PID.TID 0000.0001) %MON g__dynstat_g_uvel_del2       =   0.0000000000000E+00
(PID.TID 0000.0001) %MON g__dynstat_g_vvel_max        =   0.0000000000000E+00
(PID.TID 0000.0001) %MON g__dynstat_g_vvel_min        =   0.0000000000000E+00
(PID.TID 0000.0001) %MON g__dynstat_g_vvel_mean       =   0.0000000000000E+00
(PID.TID 0000.0001) %MON g__dynstat_g_vvel_sd         =   0.0000000000000E+00
(PID.TID 0000.0001) %MON g__dynstat_g_vvel_del2       =   0.0000000000000E+00
(PID.TID 0000.0001) %MON g__dynstat_g_wvel_max        =   0.0000000000000E+00
(PID.TID 0000.0001) %MON g__dynstat_g_wvel_min        =   0.0000000000000E+00
(PID.TID 0000.0001) %MON g__dynstat_g_wvel_mean       =   0.0000000000000E+00
(PID.TID 0000.0001) %MON g__dynstat_g_wvel_sd         =   0.0000000000000E+00
(PID.TID 0000.0001) %MON g__dynstat_g_wvel_del2       =   0.0000000000000E+00
(PID.TID 0000.0001) %MON g__dynstat_g_theta_max       =   0.0000000000000E+00
(PID.TID 0000.0001) %MON g__dynstat_g_theta_min       =   0.0000000000000E+00
(PID.TID 0000.0001) %MON g__dynstat_g_theta_mean      =   0.0000000000000E+00
(PID.TID 0000.0001) %MON g__dynstat_g_theta_sd        =   0.0000000000000E+00
(PID.TID 0000.0001) %MON g__dynstat_g_theta_del2      =   0.0000000000000E+00
(PID.TID 0000.0001) %MON g__dynstat_g_salt_max        =   0.0000000000000E+00
(PID.TID 0000.0001) %MON g__dynstat_g_salt_min        =   0.0000000000000E+00
(PID.TID 0000.0001) %MON g__dynstat_g_salt_mean       =   0.0000000000000E+00
(PID.TID 0000.0001) %MON g__dynstat_g_salt_sd         =   0.0000000000000E+00
(PID.TID 0000.0001) %MON g__dynstat_g_salt_del2       =   0.0000000000000E+00
(PID.TID 0000.0001) %MON g__dynstat_g_sst_max         =   0.0000000000000E+00
(PID.TID 0000.0001) %MON g__dynstat_g_sst_min         =   0.0000000000000E+00
(PID.TID 0000.0001) %MON g__dynstat_g_sst_mean        =   0.0000000000000E+00
(PID.TID 0000.0001) %MON g__dynstat_g_sst_sd          =   0.0000000000000E+00
(PID.TID 0000.0001) %MON g__dynstat_g_sst_del2        =   0.0000000000000E+00
(PID.TID 0000.0001) %MON g__dynstat_g_sss_max         =   0.0000000000000E+00
(PID.TID 0000.0001) %MON g__dynstat_g_sss_min         =   0.0000000000000E+00
(PID.TID 0000.0001) %MON g__dynstat_g_sss_mean        =   0.0000000000000E+00
(PID.TID 0000.0001) %MON g__dynstat_g_sss_sd          =   0.0000000000000E+00
(PID.TID 0000.0001) %MON g__dynstat_g_sss_del2        =   0.0000000000000E+00
(PID.TID 0000.0001) %MON g__extforcing_g_qnet_max     =   0.0000000000000E+00
(PID.TID 0000.0001) %MON g__extforcing_g_qnet_min     =   0.0000000000000E+00
(PID.TID 0000.0001) %MON g__extforcing_g_qnet_mean    =   0.0000000000000E+00
(PID.TID 0000.0001) %MON g__extforcing_g_qnet_sd      =   0.0000000000000E+00
(PID.TID 0000.0001) %MON g__extforcing_g_qnet_del2    =   0.0000000000000E+00
(PID.TID 0000.0001) %MON g__extforcing_g_empmr_max    =   0.0000000000000E+00
(PID.TID 0000.0001) %MON g__extforcing_g_empmr_min    =   0.0000000000000E+00
(PID.TID 0000.0001) %MON g__extforcing_g_empmr_mean   =   0.0000000000000E+00
(PID.TID 0000.0001) %MON g__extforcing_g_empmr_sd     =   0.0000000000000E+00
(PID.TID 0000.0001) %MON g__extforcing_g_empmr_del2   =   0.0000000000000E+00
(PID.TID 0000.0001) %MON g__extforcing_g_fu_max       =   0.0000000000000E+00
(PID.TID 0000.0001) %MON g__extforcing_g_fu_min       =   0.0000000000000E+00
(PID.TID 0000.0001) %MON g__extforcing_g_fu_mean      =   0.0000000000000E+00
(PID.TID 0000.0001) %MON g__extforcing_g_fu_sd        =   0.0000000000000E+00
(PID.TID 0000.0001) %MON g__extforcing_g_fu_del2      =   0.0000000000000E+00
(PID.TID 0000.0001) %MON g__extforcing_g_fv_max       =   0.0000000000000E+00
(PID.TID 0000.0001) %MON g__extforcing_g_fv_min       =   0.0000000000000E+00
(PID.TID 0000.0001) %MON g__extforcing_g_fv_mean      =   0.0000000000000E+00
(PID.TID 0000.0001) %MON g__extforcing_g_fv_sd        =   0.0000000000000E+00
(PID.TID 0000.0001) %MON g__extforcing_g_fv_del2      =   0.0000000000000E+00
(PID.TID 0000.0001) %MON g__g_vcfl_g_uvel_max         =   0.0000000000000E+00
(PID.TID 0000.0001) %MON g__g_vcfl_g_vvel_max         =   0.0000000000000E+00
(PID.TID 0000.0001) %MON g__g_vcfl_g_wvel_max         =   0.0000000000000E+00
(PID.TID 0000.0001) %MON g__g_vcfl_g_W_hf_max         =   0.0000000000000E+00
(PID.TID 0000.0001) // =======================================================
(PID.TID 0000.0001) // End MONITOR dynamic field statistics
(PID.TID 0000.0001) // =======================================================
 cg2d: Sum(rhs),rhsMax =   0.00000000000000E+00  0.00000000000000E+00
 cg2d: Sum(rhs),rhsMax =   2.18331602797051E-12  8.72810172445273E+00
(PID.TID 0000.0001) // =======================================================
(PID.TID 0000.0001) // Begin MONITOR dynamic field statistics
(PID.TID 0000.0001) // =======================================================
(PID.TID 0000.0001) %MON g__time_tsnumber             =                   115
(PID.TID 0000.0001) %MON g__time_secondsf             =   4.9680000000000E+06
(PID.TID 0000.0001) %MON g__dynstat_g_eta_max         =   0.0000000000000E+00
(PID.TID 0000.0001) %MON g__dynstat_g_eta_min         =   0.0000000000000E+00
(PID.TID 0000.0001) %MON g__dynstat_g_eta_mean        =   0.0000000000000E+00
(PID.TID 0000.0001) %MON g__dynstat_g_eta_sd          =   0.0000000000000E+00
(PID.TID 0000.0001) %MON g__dynstat_g_eta_del2        =   0.0000000000000E+00
(PID.TID 0000.0001) %MON g__dynstat_g_uvel_max        =   0.0000000000000E+00
(PID.TID 0000.0001) %MON g__dynstat_g_uvel_min        =   0.0000000000000E+00
(PID.TID 0000.0001) %MON g__dynstat_g_uvel_mean       =   0.0000000000000E+00
(PID.TID 0000.0001) %MON g__dynstat_g_uvel_sd         =   0.0000000000000E+00
(PID.TID 0000.0001) %MON g__dynstat_g_uvel_del2       =   0.0000000000000E+00
(PID.TID 0000.0001) %MON g__dynstat_g_vvel_max        =   0.0000000000000E+00
(PID.TID 0000.0001) %MON g__dynstat_g_vvel_min        =   0.0000000000000E+00
(PID.TID 0000.0001) %MON g__dynstat_g_vvel_mean       =   0.0000000000000E+00
(PID.TID 0000.0001) %MON g__dynstat_g_vvel_sd         =   0.0000000000000E+00
(PID.TID 0000.0001) %MON g__dynstat_g_vvel_del2       =   0.0000000000000E+00
(PID.TID 0000.0001) %MON g__dynstat_g_wvel_max        =   0.0000000000000E+00
(PID.TID 0000.0001) %MON g__dynstat_g_wvel_min        =   0.0000000000000E+00
(PID.TID 0000.0001) %MON g__dynstat_g_wvel_mean       =   0.0000000000000E+00
(PID.TID 0000.0001) %MON g__dynstat_g_wvel_sd         =   0.0000000000000E+00
(PID.TID 0000.0001) %MON g__dynstat_g_wvel_del2       =   0.0000000000000E+00
(PID.TID 0000.0001) %MON g__dynstat_g_theta_max       =   0.0000000000000E+00
(PID.TID 0000.0001) %MON g__dynstat_g_theta_min       =   0.0000000000000E+00
(PID.TID 0000.0001) %MON g__dynstat_g_theta_mean      =   0.0000000000000E+00
(PID.TID 0000.0001) %MON g__dynstat_g_theta_sd        =   0.0000000000000E+00
(PID.TID 0000.0001) %MON g__dynstat_g_theta_del2      =   0.0000000000000E+00
(PID.TID 0000.0001) %MON g__dynstat_g_salt_max        =   0.0000000000000E+00
(PID.TID 0000.0001) %MON g__dynstat_g_salt_min        =   0.0000000000000E+00
(PID.TID 0000.0001) %MON g__dynstat_g_salt_mean       =   0.0000000000000E+00
(PID.TID 0000.0001) %MON g__dynstat_g_salt_sd         =   0.0000000000000E+00
(PID.TID 0000.0001) %MON g__dynstat_g_salt_del2       =   0.0000000000000E+00
(PID.TID 0000.0001) %MON g__dynstat_g_sst_max         =   0.0000000000000E+00
(PID.TID 0000.0001) %MON g__dynstat_g_sst_min         =   0.0000000000000E+00
(PID.TID 0000.0001) %MON g__dynstat_g_sst_mean        =   0.0000000000000E+00
(PID.TID 0000.0001) %MON g__dynstat_g_sst_sd          =   0.0000000000000E+00
(PID.TID 0000.0001) %MON g__dynstat_g_sst_del2        =   0.0000000000000E+00
(PID.TID 0000.0001) %MON g__dynstat_g_sss_max         =   0.0000000000000E+00
(PID.TID 0000.0001) %MON g__dynstat_g_sss_min         =   0.0000000000000E+00
(PID.TID 0000.0001) %MON g__dynstat_g_sss_mean        =   0.0000000000000E+00
(PID.TID 0000.0001) %MON g__dynstat_g_sss_sd          =   0.0000000000000E+00
(PID.TID 0000.0001) %MON g__dynstat_g_sss_del2        =   0.0000000000000E+00
(PID.TID 0000.0001) %MON g__extforcing_g_qnet_max     =   0.0000000000000E+00
(PID.TID 0000.0001) %MON g__extforcing_g_qnet_min     =   0.0000000000000E+00
(PID.TID 0000.0001) %MON g__extforcing_g_qnet_mean    =   0.0000000000000E+00
(PID.TID 0000.0001) %MON g__extforcing_g_qnet_sd      =   0.0000000000000E+00
(PID.TID 0000.0001) %MON g__extforcing_g_qnet_del2    =   0.0000000000000E+00
(PID.TID 0000.0001) %MON g__extforcing_g_empmr_max    =   0.0000000000000E+00
(PID.TID 0000.0001) %MON g__extforcing_g_empmr_min    =   0.0000000000000E+00
(PID.TID 0000.0001) %MON g__extforcing_g_empmr_mean   =   0.0000000000000E+00
(PID.TID 0000.0001) %MON g__extforcing_g_empmr_sd     =   0.0000000000000E+00
(PID.TID 0000.0001) %MON g__extforcing_g_empmr_del2   =   0.0000000000000E+00
(PID.TID 0000.0001) %MON g__extforcing_g_fu_max       =   0.0000000000000E+00
(PID.TID 0000.0001) %MON g__extforcing_g_fu_min       =   0.0000000000000E+00
(PID.TID 0000.0001) %MON g__extforcing_g_fu_mean      =   0.0000000000000E+00
(PID.TID 0000.0001) %MON g__extforcing_g_fu_sd        =   0.0000000000000E+00
(PID.TID 0000.0001) %MON g__extforcing_g_fu_del2      =   0.0000000000000E+00
(PID.TID 0000.0001) %MON g__extforcing_g_fv_max       =   0.0000000000000E+00
(PID.TID 0000.0001) %MON g__extforcing_g_fv_min       =   0.0000000000000E+00
(PID.TID 0000.0001) %MON g__extforcing_g_fv_mean      =   0.0000000000000E+00
(PID.TID 0000.0001) %MON g__extforcing_g_fv_sd        =   0.0000000000000E+00
(PID.TID 0000.0001) %MON g__extforcing_g_fv_del2      =   0.0000000000000E+00
(PID.TID 0000.0001) %MON g__g_vcfl_g_uvel_max         =   0.0000000000000E+00
(PID.TID 0000.0001) %MON g__g_vcfl_g_vvel_max         =   0.0000000000000E+00
(PID.TID 0000.0001) %MON g__g_vcfl_g_wvel_max         =   0.0000000000000E+00
(PID.TID 0000.0001) %MON g__g_vcfl_g_W_hf_max         =   0.0000000000000E+00
(PID.TID 0000.0001) // =======================================================
(PID.TID 0000.0001) // End MONITOR dynamic field statistics
(PID.TID 0000.0001) // =======================================================
 cg2d: Sum(rhs),rhsMax =   0.00000000000000E+00  0.00000000000000E+00
 cg2d: Sum(rhs),rhsMax =   2.24256724301597E-12  8.66161341629482E+00
(PID.TID 0000.0001) // =======================================================
(PID.TID 0000.0001) // Begin MONITOR dynamic field statistics
(PID.TID 0000.0001) // =======================================================
(PID.TID 0000.0001) %MON g__time_tsnumber             =                   116
(PID.TID 0000.0001) %MON g__time_secondsf             =   5.0112000000000E+06
(PID.TID 0000.0001) %MON g__dynstat_g_eta_max         =   0.0000000000000E+00
(PID.TID 0000.0001) %MON g__dynstat_g_eta_min         =   0.0000000000000E+00
(PID.TID 0000.0001) %MON g__dynstat_g_eta_mean        =   0.0000000000000E+00
(PID.TID 0000.0001) %MON g__dynstat_g_eta_sd          =   0.0000000000000E+00
(PID.TID 0000.0001) %MON g__dynstat_g_eta_del2        =   0.0000000000000E+00
(PID.TID 0000.0001) %MON g__dynstat_g_uvel_max        =   0.0000000000000E+00
(PID.TID 0000.0001) %MON g__dynstat_g_uvel_min        =   0.0000000000000E+00
(PID.TID 0000.0001) %MON g__dynstat_g_uvel_mean       =   0.0000000000000E+00
(PID.TID 0000.0001) %MON g__dynstat_g_uvel_sd         =   0.0000000000000E+00
(PID.TID 0000.0001) %MON g__dynstat_g_uvel_del2       =   0.0000000000000E+00
(PID.TID 0000.0001) %MON g__dynstat_g_vvel_max        =   0.0000000000000E+00
(PID.TID 0000.0001) %MON g__dynstat_g_vvel_min        =   0.0000000000000E+00
(PID.TID 0000.0001) %MON g__dynstat_g_vvel_mean       =   0.0000000000000E+00
(PID.TID 0000.0001) %MON g__dynstat_g_vvel_sd         =   0.0000000000000E+00
(PID.TID 0000.0001) %MON g__dynstat_g_vvel_del2       =   0.0000000000000E+00
(PID.TID 0000.0001) %MON g__dynstat_g_wvel_max        =   0.0000000000000E+00
(PID.TID 0000.0001) %MON g__dynstat_g_wvel_min        =   0.0000000000000E+00
(PID.TID 0000.0001) %MON g__dynstat_g_wvel_mean       =   0.0000000000000E+00
(PID.TID 0000.0001) %MON g__dynstat_g_wvel_sd         =   0.0000000000000E+00
(PID.TID 0000.0001) %MON g__dynstat_g_wvel_del2       =   0.0000000000000E+00
(PID.TID 0000.0001) %MON g__dynstat_g_theta_max       =   0.0000000000000E+00
(PID.TID 0000.0001) %MON g__dynstat_g_theta_min       =   0.0000000000000E+00
(PID.TID 0000.0001) %MON g__dynstat_g_theta_mean      =   0.0000000000000E+00
(PID.TID 0000.0001) %MON g__dynstat_g_theta_sd        =   0.0000000000000E+00
(PID.TID 0000.0001) %MON g__dynstat_g_theta_del2      =   0.0000000000000E+00
(PID.TID 0000.0001) %MON g__dynstat_g_salt_max        =   0.0000000000000E+00
(PID.TID 0000.0001) %MON g__dynstat_g_salt_min        =   0.0000000000000E+00
(PID.TID 0000.0001) %MON g__dynstat_g_salt_mean       =   0.0000000000000E+00
(PID.TID 0000.0001) %MON g__dynstat_g_salt_sd         =   0.0000000000000E+00
(PID.TID 0000.0001) %MON g__dynstat_g_salt_del2       =   0.0000000000000E+00
(PID.TID 0000.0001) %MON g__dynstat_g_sst_max         =   0.0000000000000E+00
(PID.TID 0000.0001) %MON g__dynstat_g_sst_min         =   0.0000000000000E+00
(PID.TID 0000.0001) %MON g__dynstat_g_sst_mean        =   0.0000000000000E+00
(PID.TID 0000.0001) %MON g__dynstat_g_sst_sd          =   0.0000000000000E+00
(PID.TID 0000.0001) %MON g__dynstat_g_sst_del2        =   0.0000000000000E+00
(PID.TID 0000.0001) %MON g__dynstat_g_sss_max         =   0.0000000000000E+00
(PID.TID 0000.0001) %MON g__dynstat_g_sss_min         =   0.0000000000000E+00
(PID.TID 0000.0001) %MON g__dynstat_g_sss_mean        =   0.0000000000000E+00
(PID.TID 0000.0001) %MON g__dynstat_g_sss_sd          =   0.0000000000000E+00
(PID.TID 0000.0001) %MON g__dynstat_g_sss_del2        =   0.0000000000000E+00
(PID.TID 0000.0001) %MON g__extforcing_g_qnet_max     =   0.0000000000000E+00
(PID.TID 0000.0001) %MON g__extforcing_g_qnet_min     =   0.0000000000000E+00
(PID.TID 0000.0001) %MON g__extforcing_g_qnet_mean    =   0.0000000000000E+00
(PID.TID 0000.0001) %MON g__extforcing_g_qnet_sd      =   0.0000000000000E+00
(PID.TID 0000.0001) %MON g__extforcing_g_qnet_del2    =   0.0000000000000E+00
(PID.TID 0000.0001) %MON g__extforcing_g_empmr_max    =   0.0000000000000E+00
(PID.TID 0000.0001) %MON g__extforcing_g_empmr_min    =   0.0000000000000E+00
(PID.TID 0000.0001) %MON g__extforcing_g_empmr_mean   =   0.0000000000000E+00
(PID.TID 0000.0001) %MON g__extforcing_g_empmr_sd     =   0.0000000000000E+00
(PID.TID 0000.0001) %MON g__extforcing_g_empmr_del2   =   0.0000000000000E+00
(PID.TID 0000.0001) %MON g__extforcing_g_fu_max       =   0.0000000000000E+00
(PID.TID 0000.0001) %MON g__extforcing_g_fu_min       =   0.0000000000000E+00
(PID.TID 0000.0001) %MON g__extforcing_g_fu_mean      =   0.0000000000000E+00
(PID.TID 0000.0001) %MON g__extforcing_g_fu_sd        =   0.0000000000000E+00
(PID.TID 0000.0001) %MON g__extforcing_g_fu_del2      =   0.0000000000000E+00
(PID.TID 0000.0001) %MON g__extforcing_g_fv_max       =   0.0000000000000E+00
(PID.TID 0000.0001) %MON g__extforcing_g_fv_min       =   0.0000000000000E+00
(PID.TID 0000.0001) %MON g__extforcing_g_fv_mean      =   0.0000000000000E+00
(PID.TID 0000.0001) %MON g__extforcing_g_fv_sd        =   0.0000000000000E+00
(PID.TID 0000.0001) %MON g__extforcing_g_fv_del2      =   0.0000000000000E+00
(PID.TID 0000.0001) %MON g__g_vcfl_g_uvel_max         =   0.0000000000000E+00
(PID.TID 0000.0001) %MON g__g_vcfl_g_vvel_max         =   0.0000000000000E+00
(PID.TID 0000.0001) %MON g__g_vcfl_g_wvel_max         =   0.0000000000000E+00
(PID.TID 0000.0001) %MON g__g_vcfl_g_W_hf_max         =   0.0000000000000E+00
(PID.TID 0000.0001) // =======================================================
(PID.TID 0000.0001) // End MONITOR dynamic field statistics
(PID.TID 0000.0001) // =======================================================
 cg2d: Sum(rhs),rhsMax =   0.00000000000000E+00  0.00000000000000E+00
 cg2d: Sum(rhs),rhsMax =   1.92805493792747E-12  8.59122132821659E+00
(PID.TID 0000.0001) // =======================================================
(PID.TID 0000.0001) // Begin MONITOR dynamic field statistics
(PID.TID 0000.0001) // =======================================================
(PID.TID 0000.0001) %MON g__time_tsnumber             =                   117
(PID.TID 0000.0001) %MON g__time_secondsf             =   5.0544000000000E+06
(PID.TID 0000.0001) %MON g__dynstat_g_eta_max         =   0.0000000000000E+00
(PID.TID 0000.0001) %MON g__dynstat_g_eta_min         =   0.0000000000000E+00
(PID.TID 0000.0001) %MON g__dynstat_g_eta_mean        =   0.0000000000000E+00
(PID.TID 0000.0001) %MON g__dynstat_g_eta_sd          =   0.0000000000000E+00
(PID.TID 0000.0001) %MON g__dynstat_g_eta_del2        =   0.0000000000000E+00
(PID.TID 0000.0001) %MON g__dynstat_g_uvel_max        =   0.0000000000000E+00
(PID.TID 0000.0001) %MON g__dynstat_g_uvel_min        =   0.0000000000000E+00
(PID.TID 0000.0001) %MON g__dynstat_g_uvel_mean       =   0.0000000000000E+00
(PID.TID 0000.0001) %MON g__dynstat_g_uvel_sd         =   0.0000000000000E+00
(PID.TID 0000.0001) %MON g__dynstat_g_uvel_del2       =   0.0000000000000E+00
(PID.TID 0000.0001) %MON g__dynstat_g_vvel_max        =   0.0000000000000E+00
(PID.TID 0000.0001) %MON g__dynstat_g_vvel_min        =   0.0000000000000E+00
(PID.TID 0000.0001) %MON g__dynstat_g_vvel_mean       =   0.0000000000000E+00
(PID.TID 0000.0001) %MON g__dynstat_g_vvel_sd         =   0.0000000000000E+00
(PID.TID 0000.0001) %MON g__dynstat_g_vvel_del2       =   0.0000000000000E+00
(PID.TID 0000.0001) %MON g__dynstat_g_wvel_max        =   0.0000000000000E+00
(PID.TID 0000.0001) %MON g__dynstat_g_wvel_min        =   0.0000000000000E+00
(PID.TID 0000.0001) %MON g__dynstat_g_wvel_mean       =   0.0000000000000E+00
(PID.TID 0000.0001) %MON g__dynstat_g_wvel_sd         =   0.0000000000000E+00
(PID.TID 0000.0001) %MON g__dynstat_g_wvel_del2       =   0.0000000000000E+00
(PID.TID 0000.0001) %MON g__dynstat_g_theta_max       =   0.0000000000000E+00
(PID.TID 0000.0001) %MON g__dynstat_g_theta_min       =   0.0000000000000E+00
(PID.TID 0000.0001) %MON g__dynstat_g_theta_mean      =   0.0000000000000E+00
(PID.TID 0000.0001) %MON g__dynstat_g_theta_sd        =   0.0000000000000E+00
(PID.TID 0000.0001) %MON g__dynstat_g_theta_del2      =   0.0000000000000E+00
(PID.TID 0000.0001) %MON g__dynstat_g_salt_max        =   0.0000000000000E+00
(PID.TID 0000.0001) %MON g__dynstat_g_salt_min        =   0.0000000000000E+00
(PID.TID 0000.0001) %MON g__dynstat_g_salt_mean       =   0.0000000000000E+00
(PID.TID 0000.0001) %MON g__dynstat_g_salt_sd         =   0.0000000000000E+00
(PID.TID 0000.0001) %MON g__dynstat_g_salt_del2       =   0.0000000000000E+00
(PID.TID 0000.0001) %MON g__dynstat_g_sst_max         =   0.0000000000000E+00
(PID.TID 0000.0001) %MON g__dynstat_g_sst_min         =   0.0000000000000E+00
(PID.TID 0000.0001) %MON g__dynstat_g_sst_mean        =   0.0000000000000E+00
(PID.TID 0000.0001) %MON g__dynstat_g_sst_sd          =   0.0000000000000E+00
(PID.TID 0000.0001) %MON g__dynstat_g_sst_del2        =   0.0000000000000E+00
(PID.TID 0000.0001) %MON g__dynstat_g_sss_max         =   0.0000000000000E+00
(PID.TID 0000.0001) %MON g__dynstat_g_sss_min         =   0.0000000000000E+00
(PID.TID 0000.0001) %MON g__dynstat_g_sss_mean        =   0.0000000000000E+00
(PID.TID 0000.0001) %MON g__dynstat_g_sss_sd          =   0.0000000000000E+00
(PID.TID 0000.0001) %MON g__dynstat_g_sss_del2        =   0.0000000000000E+00
(PID.TID 0000.0001) %MON g__extforcing_g_qnet_max     =   0.0000000000000E+00
(PID.TID 0000.0001) %MON g__extforcing_g_qnet_min     =   0.0000000000000E+00
(PID.TID 0000.0001) %MON g__extforcing_g_qnet_mean    =   0.0000000000000E+00
(PID.TID 0000.0001) %MON g__extforcing_g_qnet_sd      =   0.0000000000000E+00
(PID.TID 0000.0001) %MON g__extforcing_g_qnet_del2    =   0.0000000000000E+00
(PID.TID 0000.0001) %MON g__extforcing_g_empmr_max    =   0.0000000000000E+00
(PID.TID 0000.0001) %MON g__extforcing_g_empmr_min    =   0.0000000000000E+00
(PID.TID 0000.0001) %MON g__extforcing_g_empmr_mean   =   0.0000000000000E+00
(PID.TID 0000.0001) %MON g__extforcing_g_empmr_sd     =   0.0000000000000E+00
(PID.TID 0000.0001) %MON g__extforcing_g_empmr_del2   =   0.0000000000000E+00
(PID.TID 0000.0001) %MON g__extforcing_g_fu_max       =   0.0000000000000E+00
(PID.TID 0000.0001) %MON g__extforcing_g_fu_min       =   0.0000000000000E+00
(PID.TID 0000.0001) %MON g__extforcing_g_fu_mean      =   0.0000000000000E+00
(PID.TID 0000.0001) %MON g__extforcing_g_fu_sd        =   0.0000000000000E+00
(PID.TID 0000.0001) %MON g__extforcing_g_fu_del2      =   0.0000000000000E+00
(PID.TID 0000.0001) %MON g__extforcing_g_fv_max       =   0.0000000000000E+00
(PID.TID 0000.0001) %MON g__extforcing_g_fv_min       =   0.0000000000000E+00
(PID.TID 0000.0001) %MON g__extforcing_g_fv_mean      =   0.0000000000000E+00
(PID.TID 0000.0001) %MON g__extforcing_g_fv_sd        =   0.0000000000000E+00
(PID.TID 0000.0001) %MON g__extforcing_g_fv_del2      =   0.0000000000000E+00
(PID.TID 0000.0001) %MON g__g_vcfl_g_uvel_max         =   0.0000000000000E+00
(PID.TID 0000.0001) %MON g__g_vcfl_g_vvel_max         =   0.0000000000000E+00
(PID.TID 0000.0001) %MON g__g_vcfl_g_wvel_max         =   0.0000000000000E+00
(PID.TID 0000.0001) %MON g__g_vcfl_g_W_hf_max         =   0.0000000000000E+00
(PID.TID 0000.0001) // =======================================================
(PID.TID 0000.0001) // End MONITOR dynamic field statistics
(PID.TID 0000.0001) // =======================================================
 cg2d: Sum(rhs),rhsMax =   0.00000000000000E+00  0.00000000000000E+00
 cg2d: Sum(rhs),rhsMax =   2.26828278382385E-12  8.77527684111764E+00
(PID.TID 0000.0001) // =======================================================
(PID.TID 0000.0001) // Begin MONITOR dynamic field statistics
(PID.TID 0000.0001) // =======================================================
(PID.TID 0000.0001) %MON g__time_tsnumber             =                   118
(PID.TID 0000.0001) %MON g__time_secondsf             =   5.0976000000000E+06
(PID.TID 0000.0001) %MON g__dynstat_g_eta_max         =   0.0000000000000E+00
(PID.TID 0000.0001) %MON g__dynstat_g_eta_min         =   0.0000000000000E+00
(PID.TID 0000.0001) %MON g__dynstat_g_eta_mean        =   0.0000000000000E+00
(PID.TID 0000.0001) %MON g__dynstat_g_eta_sd          =   0.0000000000000E+00
(PID.TID 0000.0001) %MON g__dynstat_g_eta_del2        =   0.0000000000000E+00
(PID.TID 0000.0001) %MON g__dynstat_g_uvel_max        =   0.0000000000000E+00
(PID.TID 0000.0001) %MON g__dynstat_g_uvel_min        =   0.0000000000000E+00
(PID.TID 0000.0001) %MON g__dynstat_g_uvel_mean       =   0.0000000000000E+00
(PID.TID 0000.0001) %MON g__dynstat_g_uvel_sd         =   0.0000000000000E+00
(PID.TID 0000.0001) %MON g__dynstat_g_uvel_del2       =   0.0000000000000E+00
(PID.TID 0000.0001) %MON g__dynstat_g_vvel_max        =   0.0000000000000E+00
(PID.TID 0000.0001) %MON g__dynstat_g_vvel_min        =   0.0000000000000E+00
(PID.TID 0000.0001) %MON g__dynstat_g_vvel_mean       =   0.0000000000000E+00
(PID.TID 0000.0001) %MON g__dynstat_g_vvel_sd         =   0.0000000000000E+00
(PID.TID 0000.0001) %MON g__dynstat_g_vvel_del2       =   0.0000000000000E+00
(PID.TID 0000.0001) %MON g__dynstat_g_wvel_max        =   0.0000000000000E+00
(PID.TID 0000.0001) %MON g__dynstat_g_wvel_min        =   0.0000000000000E+00
(PID.TID 0000.0001) %MON g__dynstat_g_wvel_mean       =   0.0000000000000E+00
(PID.TID 0000.0001) %MON g__dynstat_g_wvel_sd         =   0.0000000000000E+00
(PID.TID 0000.0001) %MON g__dynstat_g_wvel_del2       =   0.0000000000000E+00
(PID.TID 0000.0001) %MON g__dynstat_g_theta_max       =   0.0000000000000E+00
(PID.TID 0000.0001) %MON g__dynstat_g_theta_min       =   0.0000000000000E+00
(PID.TID 0000.0001) %MON g__dynstat_g_theta_mean      =   0.0000000000000E+00
(PID.TID 0000.0001) %MON g__dynstat_g_theta_sd        =   0.0000000000000E+00
(PID.TID 0000.0001) %MON g__dynstat_g_theta_del2      =   0.0000000000000E+00
(PID.TID 0000.0001) %MON g__dynstat_g_salt_max        =   0.0000000000000E+00
(PID.TID 0000.0001) %MON g__dynstat_g_salt_min        =   0.0000000000000E+00
(PID.TID 0000.0001) %MON g__dynstat_g_salt_mean       =   0.0000000000000E+00
(PID.TID 0000.0001) %MON g__dynstat_g_salt_sd         =   0.0000000000000E+00
(PID.TID 0000.0001) %MON g__dynstat_g_salt_del2       =   0.0000000000000E+00
(PID.TID 0000.0001) %MON g__dynstat_g_sst_max         =   0.0000000000000E+00
(PID.TID 0000.0001) %MON g__dynstat_g_sst_min         =   0.0000000000000E+00
(PID.TID 0000.0001) %MON g__dynstat_g_sst_mean        =   0.0000000000000E+00
(PID.TID 0000.0001) %MON g__dynstat_g_sst_sd          =   0.0000000000000E+00
(PID.TID 0000.0001) %MON g__dynstat_g_sst_del2        =   0.0000000000000E+00
(PID.TID 0000.0001) %MON g__dynstat_g_sss_max         =   0.0000000000000E+00
(PID.TID 0000.0001) %MON g__dynstat_g_sss_min         =   0.0000000000000E+00
(PID.TID 0000.0001) %MON g__dynstat_g_sss_mean        =   0.0000000000000E+00
(PID.TID 0000.0001) %MON g__dynstat_g_sss_sd          =   0.0000000000000E+00
(PID.TID 0000.0001) %MON g__dynstat_g_sss_del2        =   0.0000000000000E+00
(PID.TID 0000.0001) %MON g__extforcing_g_qnet_max     =   0.0000000000000E+00
(PID.TID 0000.0001) %MON g__extforcing_g_qnet_min     =   0.0000000000000E+00
(PID.TID 0000.0001) %MON g__extforcing_g_qnet_mean    =   0.0000000000000E+00
(PID.TID 0000.0001) %MON g__extforcing_g_qnet_sd      =   0.0000000000000E+00
(PID.TID 0000.0001) %MON g__extforcing_g_qnet_del2    =   0.0000000000000E+00
(PID.TID 0000.0001) %MON g__extforcing_g_empmr_max    =   0.0000000000000E+00
(PID.TID 0000.0001) %MON g__extforcing_g_empmr_min    =   0.0000000000000E+00
(PID.TID 0000.0001) %MON g__extforcing_g_empmr_mean   =   0.0000000000000E+00
(PID.TID 0000.0001) %MON g__extforcing_g_empmr_sd     =   0.0000000000000E+00
(PID.TID 0000.0001) %MON g__extforcing_g_empmr_del2   =   0.0000000000000E+00
(PID.TID 0000.0001) %MON g__extforcing_g_fu_max       =   0.0000000000000E+00
(PID.TID 0000.0001) %MON g__extforcing_g_fu_min       =   0.0000000000000E+00
(PID.TID 0000.0001) %MON g__extforcing_g_fu_mean      =   0.0000000000000E+00
(PID.TID 0000.0001) %MON g__extforcing_g_fu_sd        =   0.0000000000000E+00
(PID.TID 0000.0001) %MON g__extforcing_g_fu_del2      =   0.0000000000000E+00
(PID.TID 0000.0001) %MON g__extforcing_g_fv_max       =   0.0000000000000E+00
(PID.TID 0000.0001) %MON g__extforcing_g_fv_min       =   0.0000000000000E+00
(PID.TID 0000.0001) %MON g__extforcing_g_fv_mean      =   0.0000000000000E+00
(PID.TID 0000.0001) %MON g__extforcing_g_fv_sd        =   0.0000000000000E+00
(PID.TID 0000.0001) %MON g__extforcing_g_fv_del2      =   0.0000000000000E+00
(PID.TID 0000.0001) %MON g__g_vcfl_g_uvel_max         =   0.0000000000000E+00
(PID.TID 0000.0001) %MON g__g_vcfl_g_vvel_max         =   0.0000000000000E+00
(PID.TID 0000.0001) %MON g__g_vcfl_g_wvel_max         =   0.0000000000000E+00
(PID.TID 0000.0001) %MON g__g_vcfl_g_W_hf_max         =   0.0000000000000E+00
(PID.TID 0000.0001) // =======================================================
(PID.TID 0000.0001) // End MONITOR dynamic field statistics
(PID.TID 0000.0001) // =======================================================
 cg2d: Sum(rhs),rhsMax =   0.00000000000000E+00  0.00000000000000E+00
 cg2d: Sum(rhs),rhsMax =   2.60698407306137E-12  9.00166235036073E+00
(PID.TID 0000.0001) // =======================================================
(PID.TID 0000.0001) // Begin MONITOR dynamic field statistics
(PID.TID 0000.0001) // =======================================================
(PID.TID 0000.0001) %MON g__time_tsnumber             =                   119
(PID.TID 0000.0001) %MON g__time_secondsf             =   5.1408000000000E+06
(PID.TID 0000.0001) %MON g__dynstat_g_eta_max         =   0.0000000000000E+00
(PID.TID 0000.0001) %MON g__dynstat_g_eta_min         =   0.0000000000000E+00
(PID.TID 0000.0001) %MON g__dynstat_g_eta_mean        =   0.0000000000000E+00
(PID.TID 0000.0001) %MON g__dynstat_g_eta_sd          =   0.0000000000000E+00
(PID.TID 0000.0001) %MON g__dynstat_g_eta_del2        =   0.0000000000000E+00
(PID.TID 0000.0001) %MON g__dynstat_g_uvel_max        =   0.0000000000000E+00
(PID.TID 0000.0001) %MON g__dynstat_g_uvel_min        =   0.0000000000000E+00
(PID.TID 0000.0001) %MON g__dynstat_g_uvel_mean       =   0.0000000000000E+00
(PID.TID 0000.0001) %MON g__dynstat_g_uvel_sd         =   0.0000000000000E+00
(PID.TID 0000.0001) %MON g__dynstat_g_uvel_del2       =   0.0000000000000E+00
(PID.TID 0000.0001) %MON g__dynstat_g_vvel_max        =   0.0000000000000E+00
(PID.TID 0000.0001) %MON g__dynstat_g_vvel_min        =   0.0000000000000E+00
(PID.TID 0000.0001) %MON g__dynstat_g_vvel_mean       =   0.0000000000000E+00
(PID.TID 0000.0001) %MON g__dynstat_g_vvel_sd         =   0.0000000000000E+00
(PID.TID 0000.0001) %MON g__dynstat_g_vvel_del2       =   0.0000000000000E+00
(PID.TID 0000.0001) %MON g__dynstat_g_wvel_max        =   0.0000000000000E+00
(PID.TID 0000.0001) %MON g__dynstat_g_wvel_min        =   0.0000000000000E+00
(PID.TID 0000.0001) %MON g__dynstat_g_wvel_mean       =   0.0000000000000E+00
(PID.TID 0000.0001) %MON g__dynstat_g_wvel_sd         =   0.0000000000000E+00
(PID.TID 0000.0001) %MON g__dynstat_g_wvel_del2       =   0.0000000000000E+00
(PID.TID 0000.0001) %MON g__dynstat_g_theta_max       =   0.0000000000000E+00
(PID.TID 0000.0001) %MON g__dynstat_g_theta_min       =   0.0000000000000E+00
(PID.TID 0000.0001) %MON g__dynstat_g_theta_mean      =   0.0000000000000E+00
(PID.TID 0000.0001) %MON g__dynstat_g_theta_sd        =   0.0000000000000E+00
(PID.TID 0000.0001) %MON g__dynstat_g_theta_del2      =   0.0000000000000E+00
(PID.TID 0000.0001) %MON g__dynstat_g_salt_max        =   0.0000000000000E+00
(PID.TID 0000.0001) %MON g__dynstat_g_salt_min        =   0.0000000000000E+00
(PID.TID 0000.0001) %MON g__dynstat_g_salt_mean       =   0.0000000000000E+00
(PID.TID 0000.0001) %MON g__dynstat_g_salt_sd         =   0.0000000000000E+00
(PID.TID 0000.0001) %MON g__dynstat_g_salt_del2       =   0.0000000000000E+00
(PID.TID 0000.0001) %MON g__dynstat_g_sst_max         =   0.0000000000000E+00
(PID.TID 0000.0001) %MON g__dynstat_g_sst_min         =   0.0000000000000E+00
(PID.TID 0000.0001) %MON g__dynstat_g_sst_mean        =   0.0000000000000E+00
(PID.TID 0000.0001) %MON g__dynstat_g_sst_sd          =   0.0000000000000E+00
(PID.TID 0000.0001) %MON g__dynstat_g_sst_del2        =   0.0000000000000E+00
(PID.TID 0000.0001) %MON g__dynstat_g_sss_max         =   0.0000000000000E+00
(PID.TID 0000.0001) %MON g__dynstat_g_sss_min         =   0.0000000000000E+00
(PID.TID 0000.0001) %MON g__dynstat_g_sss_mean        =   0.0000000000000E+00
(PID.TID 0000.0001) %MON g__dynstat_g_sss_sd          =   0.0000000000000E+00
(PID.TID 0000.0001) %MON g__dynstat_g_sss_del2        =   0.0000000000000E+00
(PID.TID 0000.0001) %MON g__extforcing_g_qnet_max     =   0.0000000000000E+00
(PID.TID 0000.0001) %MON g__extforcing_g_qnet_min     =   0.0000000000000E+00
(PID.TID 0000.0001) %MON g__extforcing_g_qnet_mean    =   0.0000000000000E+00
(PID.TID 0000.0001) %MON g__extforcing_g_qnet_sd      =   0.0000000000000E+00
(PID.TID 0000.0001) %MON g__extforcing_g_qnet_del2    =   0.0000000000000E+00
(PID.TID 0000.0001) %MON g__extforcing_g_empmr_max    =   0.0000000000000E+00
(PID.TID 0000.0001) %MON g__extforcing_g_empmr_min    =   0.0000000000000E+00
(PID.TID 0000.0001) %MON g__extforcing_g_empmr_mean   =   0.0000000000000E+00
(PID.TID 0000.0001) %MON g__extforcing_g_empmr_sd     =   0.0000000000000E+00
(PID.TID 0000.0001) %MON g__extforcing_g_empmr_del2   =   0.0000000000000E+00
(PID.TID 0000.0001) %MON g__extforcing_g_fu_max       =   0.0000000000000E+00
(PID.TID 0000.0001) %MON g__extforcing_g_fu_min       =   0.0000000000000E+00
(PID.TID 0000.0001) %MON g__extforcing_g_fu_mean      =   0.0000000000000E+00
(PID.TID 0000.0001) %MON g__extforcing_g_fu_sd        =   0.0000000000000E+00
(PID.TID 0000.0001) %MON g__extforcing_g_fu_del2      =   0.0000000000000E+00
(PID.TID 0000.0001) %MON g__extforcing_g_fv_max       =   0.0000000000000E+00
(PID.TID 0000.0001) %MON g__extforcing_g_fv_min       =   0.0000000000000E+00
(PID.TID 0000.0001) %MON g__extforcing_g_fv_mean      =   0.0000000000000E+00
(PID.TID 0000.0001) %MON g__extforcing_g_fv_sd        =   0.0000000000000E+00
(PID.TID 0000.0001) %MON g__extforcing_g_fv_del2      =   0.0000000000000E+00
(PID.TID 0000.0001) %MON g__g_vcfl_g_uvel_max         =   0.0000000000000E+00
(PID.TID 0000.0001) %MON g__g_vcfl_g_vvel_max         =   0.0000000000000E+00
(PID.TID 0000.0001) %MON g__g_vcfl_g_wvel_max         =   0.0000000000000E+00
(PID.TID 0000.0001) %MON g__g_vcfl_g_W_hf_max         =   0.0000000000000E+00
(PID.TID 0000.0001) // =======================================================
(PID.TID 0000.0001) // End MONITOR dynamic field statistics
(PID.TID 0000.0001) // =======================================================
 cg2d: Sum(rhs),rhsMax =   0.00000000000000E+00  0.00000000000000E+00
 cg2d: Sum(rhs),rhsMax =   2.38375985617267E-12  9.15305707655143E+00
(PID.TID 0000.0001) // =======================================================
(PID.TID 0000.0001) // Begin MONITOR dynamic field statistics
(PID.TID 0000.0001) // =======================================================
(PID.TID 0000.0001) %MON g__time_tsnumber             =                   120
(PID.TID 0000.0001) %MON g__time_secondsf             =   5.1840000000000E+06
(PID.TID 0000.0001) %MON g__dynstat_g_eta_max         =   0.0000000000000E+00
(PID.TID 0000.0001) %MON g__dynstat_g_eta_min         =   0.0000000000000E+00
(PID.TID 0000.0001) %MON g__dynstat_g_eta_mean        =   0.0000000000000E+00
(PID.TID 0000.0001) %MON g__dynstat_g_eta_sd          =   0.0000000000000E+00
(PID.TID 0000.0001) %MON g__dynstat_g_eta_del2        =   0.0000000000000E+00
(PID.TID 0000.0001) %MON g__dynstat_g_uvel_max        =   0.0000000000000E+00
(PID.TID 0000.0001) %MON g__dynstat_g_uvel_min        =   0.0000000000000E+00
(PID.TID 0000.0001) %MON g__dynstat_g_uvel_mean       =   0.0000000000000E+00
(PID.TID 0000.0001) %MON g__dynstat_g_uvel_sd         =   0.0000000000000E+00
(PID.TID 0000.0001) %MON g__dynstat_g_uvel_del2       =   0.0000000000000E+00
(PID.TID 0000.0001) %MON g__dynstat_g_vvel_max        =   0.0000000000000E+00
(PID.TID 0000.0001) %MON g__dynstat_g_vvel_min        =   0.0000000000000E+00
(PID.TID 0000.0001) %MON g__dynstat_g_vvel_mean       =   0.0000000000000E+00
(PID.TID 0000.0001) %MON g__dynstat_g_vvel_sd         =   0.0000000000000E+00
(PID.TID 0000.0001) %MON g__dynstat_g_vvel_del2       =   0.0000000000000E+00
(PID.TID 0000.0001) %MON g__dynstat_g_wvel_max        =   0.0000000000000E+00
(PID.TID 0000.0001) %MON g__dynstat_g_wvel_min        =   0.0000000000000E+00
(PID.TID 0000.0001) %MON g__dynstat_g_wvel_mean       =   0.0000000000000E+00
(PID.TID 0000.0001) %MON g__dynstat_g_wvel_sd         =   0.0000000000000E+00
(PID.TID 0000.0001) %MON g__dynstat_g_wvel_del2       =   0.0000000000000E+00
(PID.TID 0000.0001) %MON g__dynstat_g_theta_max       =   0.0000000000000E+00
(PID.TID 0000.0001) %MON g__dynstat_g_theta_min       =   0.0000000000000E+00
(PID.TID 0000.0001) %MON g__dynstat_g_theta_mean      =   0.0000000000000E+00
(PID.TID 0000.0001) %MON g__dynstat_g_theta_sd        =   0.0000000000000E+00
(PID.TID 0000.0001) %MON g__dynstat_g_theta_del2      =   0.0000000000000E+00
(PID.TID 0000.0001) %MON g__dynstat_g_salt_max        =   0.0000000000000E+00
(PID.TID 0000.0001) %MON g__dynstat_g_salt_min        =   0.0000000000000E+00
(PID.TID 0000.0001) %MON g__dynstat_g_salt_mean       =   0.0000000000000E+00
(PID.TID 0000.0001) %MON g__dynstat_g_salt_sd         =   0.0000000000000E+00
(PID.TID 0000.0001) %MON g__dynstat_g_salt_del2       =   0.0000000000000E+00
(PID.TID 0000.0001) %MON g__dynstat_g_sst_max         =   0.0000000000000E+00
(PID.TID 0000.0001) %MON g__dynstat_g_sst_min         =   0.0000000000000E+00
(PID.TID 0000.0001) %MON g__dynstat_g_sst_mean        =   0.0000000000000E+00
(PID.TID 0000.0001) %MON g__dynstat_g_sst_sd          =   0.0000000000000E+00
(PID.TID 0000.0001) %MON g__dynstat_g_sst_del2        =   0.0000000000000E+00
(PID.TID 0000.0001) %MON g__dynstat_g_sss_max         =   0.0000000000000E+00
(PID.TID 0000.0001) %MON g__dynstat_g_sss_min         =   0.0000000000000E+00
(PID.TID 0000.0001) %MON g__dynstat_g_sss_mean        =   0.0000000000000E+00
(PID.TID 0000.0001) %MON g__dynstat_g_sss_sd          =   0.0000000000000E+00
(PID.TID 0000.0001) %MON g__dynstat_g_sss_del2        =   0.0000000000000E+00
(PID.TID 0000.0001) %MON g__extforcing_g_qnet_max     =   0.0000000000000E+00
(PID.TID 0000.0001) %MON g__extforcing_g_qnet_min     =   0.0000000000000E+00
(PID.TID 0000.0001) %MON g__extforcing_g_qnet_mean    =   0.0000000000000E+00
(PID.TID 0000.0001) %MON g__extforcing_g_qnet_sd      =   0.0000000000000E+00
(PID.TID 0000.0001) %MON g__extforcing_g_qnet_del2    =   0.0000000000000E+00
(PID.TID 0000.0001) %MON g__extforcing_g_empmr_max    =   0.0000000000000E+00
(PID.TID 0000.0001) %MON g__extforcing_g_empmr_min    =   0.0000000000000E+00
(PID.TID 0000.0001) %MON g__extforcing_g_empmr_mean   =   0.0000000000000E+00
(PID.TID 0000.0001) %MON g__extforcing_g_empmr_sd     =   0.0000000000000E+00
(PID.TID 0000.0001) %MON g__extforcing_g_empmr_del2   =   0.0000000000000E+00
(PID.TID 0000.0001) %MON g__extforcing_g_fu_max       =   0.0000000000000E+00
(PID.TID 0000.0001) %MON g__extforcing_g_fu_min       =   0.0000000000000E+00
(PID.TID 0000.0001) %MON g__extforcing_g_fu_mean      =   0.0000000000000E+00
(PID.TID 0000.0001) %MON g__extforcing_g_fu_sd        =   0.0000000000000E+00
(PID.TID 0000.0001) %MON g__extforcing_g_fu_del2      =   0.0000000000000E+00
(PID.TID 0000.0001) %MON g__extforcing_g_fv_max       =   0.0000000000000E+00
(PID.TID 0000.0001) %MON g__extforcing_g_fv_min       =   0.0000000000000E+00
(PID.TID 0000.0001) %MON g__extforcing_g_fv_mean      =   0.0000000000000E+00
(PID.TID 0000.0001) %MON g__extforcing_g_fv_sd        =   0.0000000000000E+00
(PID.TID 0000.0001) %MON g__extforcing_g_fv_del2      =   0.0000000000000E+00
(PID.TID 0000.0001) %MON g__g_vcfl_g_uvel_max         =   0.0000000000000E+00
(PID.TID 0000.0001) %MON g__g_vcfl_g_vvel_max         =   0.0000000000000E+00
(PID.TID 0000.0001) %MON g__g_vcfl_g_wvel_max         =   0.0000000000000E+00
(PID.TID 0000.0001) %MON g__g_vcfl_g_W_hf_max         =   0.0000000000000E+00
(PID.TID 0000.0001) // =======================================================
(PID.TID 0000.0001) // End MONITOR dynamic field statistics
(PID.TID 0000.0001) // =======================================================
 ph-pack: packing ecco_cost
(PID.TID 0000.0001)  MDSREADFIELD_GL: opening file: maskCtrlC.001.001.data
(PID.TID 0000.0001)  MDSREADFIELD_GL: opening file: g_xx_theta.0000000000.001.001.data
(PID.TID 0000.0001)  MDSREADFIELD_GL: opening file: maskCtrlC.001.001.data
(PID.TID 0000.0001)  MDSREADFIELD_GL: opening file: g_xx_salt.0000000000.001.001.data
(PID.TID 0000.0001)  MDSREADFIELD_GL: opening file: maskCtrlC.001.001.data
(PID.TID 0000.0001)  MDSREADFIELD_GL: opening file: g_xx_hflux.0000000000.001.001.data
(PID.TID 0000.0001)  MDSREADFIELD_GL: opening file: maskCtrlC.001.001.data
(PID.TID 0000.0001)  MDSREADFIELD_GL: opening file: g_xx_sflux.0000000000.001.001.data
(PID.TID 0000.0001)  MDSREADFIELD_GL: opening file: maskCtrlW.001.001.data
(PID.TID 0000.0001)  MDSREADFIELD_GL: opening file: g_xx_tauu.0000000000.001.001.data
(PID.TID 0000.0001)  MDSREADFIELD_GL: opening file: maskCtrlS.001.001.data
(PID.TID 0000.0001)  MDSREADFIELD_GL: opening file: g_xx_tauv.0000000000.001.001.data
(PID.TID 0000.0001)  MDSREADFIELD_GL: opening file: maskCtrlC.001.001.data
(PID.TID 0000.0001)  MDSREADFIELD_GL: opening file: g_xx_diffkr.0000000000.001.001.data
 ph-check entering grdchk_main 
 ph-check fcref =  -0.114865705
 grad-res -------------------------------
 grad-res  proc    #    i    j    k            fc ref        fc + eps        fc - eps
 grad-res  proc    #    i    j    k          tlm grad         fd grad      1 - fd/tlm
(PID.TID 0000.0001)  MDSREADFIELD: opening file: g_xx_theta.0000000000.001.001.data
(PID.TID 0000.0001)  MDSREADFIELD: opening file: g_xx_theta.0000000000.001.001.data
(PID.TID 0000.0001)  MDSREADFIELD: opening global file: bathymetry.bin
(PID.TID 0000.0001) // =======================================================
(PID.TID 0000.0001) // Field Model R_low (ini_masks_etc) at iteration          1
(PID.TID 0000.0001) // CMIN =         -5.200000000000000E+03
(PID.TID 0000.0001) // CMAX =         -1.200000000000000E+02
(PID.TID 0000.0001) // CINT =          1.881481481481482E+02
(PID.TID 0000.0001) // SYMBOLS (CMIN->CMAX): -abcdefghijklmnopqrstuvwxyz+
(PID.TID 0000.0001) //                  0.0: .
(PID.TID 0000.0001) // RANGE I (Lo:Hi:Step):(  -2:  93:   1)
(PID.TID 0000.0001) // RANGE J (Lo:Hi:Step):(  43:  -2:  -1)
(PID.TID 0000.0001) // RANGE K (Lo:Hi:Step):(   1:   1:   1)
(PID.TID 0000.0001) // =======================================================
(PID.TID 0000.0001) K =   1
(PID.TID 0000.0001) //                I=7       I=17      I=27      I=37      I=47      I=57      I=67      I=77      I=87
(PID.TID 0000.0001) // |--J--|210123456|890123456|890123456|890123456|890123456|890123456|890123456|890123456|890123456|890123
(PID.TID 0000.0001) //     43 ................................................................................................
(PID.TID 0000.0001) //     42 .............................................zyxxmgfeeefefgimnpwwwy..+zyy.....yyyyoiiihhz+......
(PID.TID 0000.0001) //     41 ................................................................................................
(PID.TID 0000.0001) //     40 +qlloqz+.++++zzz++++++..................................................................+++qlloq
(PID.TID 0000.0001) //     39 uslloorzzzzzzzzz+...++.....................................................yxxz........+zvuslloo
(PID.TID 0000.0001) //     38 smqpporzzzzzz+++...........................................................zxxy+......zyyvsmqppo
(PID.TID 0000.0001) //     37 smmmuz..................................................................++...zy+...yttyy.+smmmuz
(PID.TID 0000.0001) //     36 yutt+.........................................mm++....................+++++++znmm.yoowssvuyutt+.
(PID.TID 0000.0001) //     35 w++++.................................+zzz..rrmmkk+...+gghn...........+++....+nmiijlsoopuww++++.
(PID.TID 0000.0001) //     34 +.....................................+vvy.ggqyxv+y.ccdffhim..................+nihhikkihhm+.....
(PID.TID 0000.0001) //     33 w+.....................................uuz---h------aaabdefin+.................zqvddflifffw+....
(PID.TID 0000.0001) //     32 m+.....................................+t----h---------acdfgnn................+++gdffkofffm+....
(PID.TID 0000.0001) //     31 m......................................-----ad--------abddegil..............qbaafccdhqqgddm.....
(PID.TID 0000.0001) //     30 i.....................................f----b--b------------abd............zfbb--fbcdosjfddi.....
(PID.TID 0000.0001) //     29 i...................................tu----e---fjg----------abdf...........eaac--abfmijaadgi.....
(PID.TID 0000.0001) //     28 z.................................+xfl-------------------bdedefi.........qbaa---aemfbbaaejz.....
(PID.TID 0000.0001) //     27 .................xx..............+wfgfpf--------eallc---bbbccefgi...+++x.qb-----akfa---ah.......
(PID.TID 0000.0001) //     26 .................xnn...........+vd---dna------a--aicfna---aabdfghku.++xssuy-----bgca---ci.......
(PID.TID 0000.0001) //     25 .................iiik...oo+...+ivd---doaa-bc--ilglf--aa---aabcghhkll...ssum+xaaacjbaabdjk.......
(PID.TID 0000.0001) //     24 ...............xnheeft.kkk+...uii.aagdm----aa-----a-------bbbcdefjljjju.zummwwbbchba--abi.......
(PID.TID 0000.0001) //     23 ...............xgheefp.iikw...uuw..fihi----fed-----eaaa--bbbbcdfflkjiiiq....zykccefa--abd.......
(PID.TID 0000.0001) //     22 quss...........bbelffslffkk...zz.wqkeeqoheccdfa-----egabaabcdddegghliiiqq......xeeehheehccquss..
(PID.TID 0000.0001) //     21 cbbeir........nbbcdjhqdddiiz.....wqfeelgghmedea-----bibbcddddddefghklnqoo........ieeflhgcccbbeir
(PID.TID 0000.0001) //     20 cbbder.......ldcccdgkccccidd......z.vkkktqqhegg----aaacddddddddefghkiiijl.........nhfa--gfcbbder
(PID.TID 0000.0001) //     19 hcdaaf.......kddosggpaaaibbccx...+z+.....r+nlec---agaaabcddccddefikfgffff...........d---cjhcdaaf
(PID.TID 0000.0001) //     18 hd---d.......kglggvliaaaibbcaaeaiv++...qqzolhecccfdgkaabcdfccdeeikgfgffdd+..........d---djhd---d
(PID.TID 0000.0001) //     17 hc---c.......l.feewlfaaaoaa----aiv.....qqnllslmlofcdbaacceffffhhligfigeddj.........hd---ckhc---c
(PID.TID 0000.0001) //     16 gba--c......tn.ddgnlfdaaqa-----lv.......vnllvllnwv--accivomfffhilhgfffeddjf........re--aeigba--c
(PID.TID 0000.0001) //     15 fb--dpz....+ll.ccdfhmdddlc----av.........otsxoomv---abccddfihgijkhgfffeejfff......+fd---ckfb--dp
(PID.TID 0000.0001) //     14 fc--mcl....weeqbaafilkfend--eagy.........hhstofft----aacdheefijkmjhhjijiffff.....zlfdaaadlfc--mc
(PID.TID 0000.0001) //     13 hcclbbg....nccobaaiddgkffqrqeaal.........eeutqfft------aaceeffhijlkjhhigfffq....+jgfodccflhcclbb
(PID.TID 0000.0001) //     12 hhgaaacw+iiicclemhdddfliigfdcaabfaaaz....ccsurqpc--------abcifffikiiihhggff.....kbbbdfffglhhgaaa
(PID.TID 0000.0001) //     11 kgcaaacbbifccennhbbdefnihgfdccaaaa----..dcccnt.ncab-------aabcdfilhggjiggff....l---abcefjlkgcaaa
(PID.TID 0000.0001) //     10 kfcaaccbdaacfrllfbbdegkmmljhfdddba----d.dcccfx.nyrebaba----abcdgilhfeegijgi..+w--aa-abcfilkfcaac
(PID.TID 0000.0001) //      9 lffcdcccaaaoqsolfdeehikihhlllgfedcccccdmdcccf.vyfaaaaaaaa--abdehmjhfeeefglv.++w-----abcdfklffcdc
(PID.TID 0000.0001) //      8 liffjklcaafddffeeccvznkfffhhhlkjifgjkkfeeddfsyvcaaaaaaccdcccdfgjligedbbceg+.++xffn--cfddefliffjk
(PID.TID 0000.0001) //      7 hmqnnbbkkf--bmbaabbgtykfddeffeeddccdfhlffeelfbaaaaaacddeghgjgjlligeddaaabedfiiiiiisvkfkecchmqnnb
(PID.TID 0000.0001) //      6 cca-------------aabcelttdddedddddccccdfkkiiffbaaaabcdgimmkmefecaaabbbaaabbdfiiiiispmmregifcca---
(PID.TID 0000.0001) //      5 --------a-------aaccehhhiddeddddddcccdfiikomodddefffmlmigedccaaaaaaaababbbdfiijsqgeccccbaa------
(PID.TID 0000.0001) //      4 --ahebaabbbbbeihffgijiiiijpywnnpokkomkiiijmmmolkommmgffeeedccaaaaaabbcccefhmz..yjgeccccbaa--aheb
(PID.TID 0000.0001) //      3 gffhhrpjiiwyy............................yxotmjjjjgfeeeeeeddeffffheddeghjkyy..yqjgeddccdbbgffhhr
(PID.TID 0000.0001) //      2 .............................................zyxxmgfeeefefgimnpwwwy..+zyy.....yyyyoiiihhz+......
(PID.TID 0000.0001) //      1 ................................................................................................
(PID.TID 0000.0001) //      0 +qlloqz+.++++zzz++++++..................................................................+++qlloq
(PID.TID 0000.0001) //     -1 uslloorzzzzzzzzz+...++.....................................................yxxz........+zvuslloo
(PID.TID 0000.0001) //     -2 ................................................................................................
(PID.TID 0000.0001) // =======================================================
(PID.TID 0000.0001) // END OF FIELD                                          =
(PID.TID 0000.0001) // =======================================================
(PID.TID 0000.0001) 
(PID.TID 0000.0001) // =======================================================
(PID.TID 0000.0001) // Field Model Ro_surf (ini_masks_etc) at iteration          1
(PID.TID 0000.0001) // CMIN =          1.000000000000000E+32
(PID.TID 0000.0001) // CMAX =         -1.000000000000000E+32
(PID.TID 0000.0001) // CINT =          0.000000000000000E+00
(PID.TID 0000.0001) // SYMBOLS (CMIN->CMAX): -abcdefghijklmnopqrstuvwxyz+
(PID.TID 0000.0001) //                  0.0: .
(PID.TID 0000.0001) // RANGE I (Lo:Hi:Step):(  -2:  93:   1)
(PID.TID 0000.0001) // RANGE J (Lo:Hi:Step):(  43:  -2:  -1)
(PID.TID 0000.0001) // RANGE K (Lo:Hi:Step):(   1:   1:   1)
(PID.TID 0000.0001) // =======================================================
(PID.TID 0000.0001) // =======================================================
(PID.TID 0000.0001) // END OF FIELD                                          =
(PID.TID 0000.0001) // =======================================================
(PID.TID 0000.0001) 
(PID.TID 0000.0001) // =======================================================
(PID.TID 0000.0001) // Field hFacC at iteration          1
(PID.TID 0000.0001) // CMIN =          1.000000000000000E+00
(PID.TID 0000.0001) // CMAX =          1.000000000000000E+00
(PID.TID 0000.0001) // CINT =          0.000000000000000E+00
(PID.TID 0000.0001) // SYMBOLS (CMIN->CMAX): -abcdefghijklmnopqrstuvwxyz+
(PID.TID 0000.0001) //                  0.0: .
(PID.TID 0000.0001) // RANGE I (Lo:Hi:Step):(  -2:  93:   1)
(PID.TID 0000.0001) // RANGE J (Lo:Hi:Step):(  43:  -2:  -1)
(PID.TID 0000.0001) // RANGE K (Lo:Hi:Step):(   1:   1:   1)
(PID.TID 0000.0001) // =======================================================
(PID.TID 0000.0001) // =======================================================
(PID.TID 0000.0001) // END OF FIELD                                          =
(PID.TID 0000.0001) // =======================================================
(PID.TID 0000.0001) 
(PID.TID 0000.0001) // =======================================================
(PID.TID 0000.0001) // Field hFacW at iteration          1
(PID.TID 0000.0001) // CMIN =          1.000000000000000E+00
(PID.TID 0000.0001) // CMAX =          1.000000000000000E+00
(PID.TID 0000.0001) // CINT =          0.000000000000000E+00
(PID.TID 0000.0001) // SYMBOLS (CMIN->CMAX): -abcdefghijklmnopqrstuvwxyz+
(PID.TID 0000.0001) //                  0.0: .
(PID.TID 0000.0001) // RANGE I (Lo:Hi:Step):(  -2:  93:   1)
(PID.TID 0000.0001) // RANGE J (Lo:Hi:Step):(  43:  -2:  -1)
(PID.TID 0000.0001) // RANGE K (Lo:Hi:Step):(   1:   1:   1)
(PID.TID 0000.0001) // =======================================================
(PID.TID 0000.0001) // =======================================================
(PID.TID 0000.0001) // END OF FIELD                                          =
(PID.TID 0000.0001) // =======================================================
(PID.TID 0000.0001) 
(PID.TID 0000.0001) // =======================================================
(PID.TID 0000.0001) // Field hFacS at iteration          1
(PID.TID 0000.0001) // CMIN =          1.000000000000000E+00
(PID.TID 0000.0001) // CMAX =          1.000000000000000E+00
(PID.TID 0000.0001) // CINT =          0.000000000000000E+00
(PID.TID 0000.0001) // SYMBOLS (CMIN->CMAX): -abcdefghijklmnopqrstuvwxyz+
(PID.TID 0000.0001) //                  0.0: .
(PID.TID 0000.0001) // RANGE I (Lo:Hi:Step):(  -2:  93:   1)
(PID.TID 0000.0001) // RANGE J (Lo:Hi:Step):(  43:  -2:  -1)
(PID.TID 0000.0001) // RANGE K (Lo:Hi:Step):(   1:   1:   1)
(PID.TID 0000.0001) // =======================================================
(PID.TID 0000.0001) // =======================================================
(PID.TID 0000.0001) // END OF FIELD                                          =
(PID.TID 0000.0001) // =======================================================
(PID.TID 0000.0001) 
(PID.TID 0000.0001) %MON g__g_vcflfCori_max           =   1.4226580169407E-04
(PID.TID 0000.0001) %MON g__g_vcflfCori_min           =  -1.4226580169407E-04
(PID.TID 0000.0001) %MON g__g_vcflfCori_mean          =   7.5291817533716E-23
(PID.TID 0000.0001) %MON g__g_vcflfCori_sd            =   9.6335367303778E-05
(PID.TID 0000.0001) %MON g__g_vcflfCoriG_max          =   1.4112379284621E-04
(PID.TID 0000.0001) %MON g__g_vcflfCoriG_min          =  -1.4323448157692E-04
(PID.TID 0000.0001) %MON g__g_vcflfCoriG_mean         =  -3.6726790147928E-06
(PID.TID 0000.0001) %MON g__g_vcflfCoriG_sd           =   9.7510077443652E-05
(PID.TID 0000.0001) %MON g__g_vcflfCoriCos_max        =   1.4535550371427E-04
(PID.TID 0000.0001) %MON g__g_vcflfCoriCos_min        =   3.0239529651320E-05
(PID.TID 0000.0001) %MON g__g_vcflfCoriCos_mean       =   1.0260497651149E-04
(PID.TID 0000.0001) %MON g__g_vcflfCoriCos_sd         =   3.6683828681187E-05
(PID.TID 0000.0001) INI_CG2D: CG2D normalisation factor =  6.5682677425711703E-05
(PID.TID 0000.0001) 
(PID.TID 0000.0001)  MDSREADFIELD: opening global file: lev_t.bin
(PID.TID 0000.0001) // =======================================================
(PID.TID 0000.0001) // Field Initial Temperature at iteration          1
(PID.TID 0000.0001) // CMIN =         -1.900000000000000E+00
(PID.TID 0000.0001) // CMAX =          2.973338890075684E+01
(PID.TID 0000.0001) // CINT =          1.171606996324327E+00
(PID.TID 0000.0001) // SYMBOLS (CMIN->CMAX): -abcdefghijklmnopqrstuvwxyz+
(PID.TID 0000.0001) //                  0.0: .
(PID.TID 0000.0001) // RANGE I (Lo:Hi:Step):(   1:  90:   1)
(PID.TID 0000.0001) // RANGE J (Lo:Hi:Step):(  40:   1:  -1)
(PID.TID 0000.0001) // RANGE K (Lo:Hi:Step):(   1:   1:   1)
(PID.TID 0000.0001) // =======================================================
(PID.TID 0000.0001) K =   1
(PID.TID 0000.0001)                I=10      I=20      I=30      I=40      I=50      I=60      I=70      I=80      I=90
(PID.TID 0000.0001) |--J--|123456789|123456789|123456789|123456789|123456789|123456789|123456789|123456789|123456789|
(PID.TID 0000.0001)     40 bccdd.baa----abdedd..................................................................bbbbb
(PID.TID 0000.0001)     39 ccdddddccbbbaa...ed.....................................................----........bbbbbb
(PID.TID 0000.0001)     38 fffgfedeedddc...........................................................-----......cbbbcde
(PID.TID 0000.0001)     37 ghh..................................................................bc...bbc...edeed.defg
(PID.TID 0000.0001)     36 hh.........................................ddcb....................dcccbabccdd.eefghhihhih
(PID.TID 0000.0001)     35 hh.................................aaab..dddeddd...ffggg...........ccc....ddeeeffghijjjjih
(PID.TID 0000.0001)     34 ...................................babb.deeeeeee.ffffgghh..................ccdffghijkkkj..
(PID.TID 0000.0001)     33 ....................................accdddeeeeefffffgghhiii.................bcfijkkllllkk.
(PID.TID 0000.0001)     32 ....................................bdddeffgffgghhhhhiiijjj................dccglmnmmmmlll.
(PID.TID 0000.0001)     31 ....................................fghiiiijjjjjjkkkkklllkk..............ikkjjmooooonnmm..
(PID.TID 0000.0001)     30 ...................................mmmnmmmmmmmmmmmmmnnnnnmm............moqrrrqrqqqpppooo..
(PID.TID 0000.0001)     29 .................................pqqqqqpppppppppoppoppppponm...........ssssssrrrrrqqqqpp..
(PID.TID 0000.0001)     28 ...............................prssssrrrsssrrrrrrrrrrrrrqqpoo.........uttssstssrssrrrqqq..
(PID.TID 0000.0001)     27 ..............vv..............stuttuuuuutuuuuuuuuuuttttssrrqqq...stuu.vvvuuuuutttttsss....
(PID.TID 0000.0001)     26 ..............vvv...........uuvvvvvwwwwwwwwvvvvvvvvvuuutttsssttv.uuvxxwwwwwwvvvvuuttsr....
(PID.TID 0000.0001)     25 ..............wwwx...xxx...vvvxxxxxyyxxxxxxxxxwwwwwvvvvvuuuuuvwwx...xxxxxxwwwwwwvvutsr....
(PID.TID 0000.0001)     24 ............wwwwxyy.xxyy...wxx.yyyyyyyyyyyxxxxxxxxwwwwwwwvvwwxxyywww.xxxxxxxxxxwwwvvur....
(PID.TID 0000.0001)     23 ............xxxyyyz.xyyy...xxx..yyyyzzyyyyyyyyxxxxxxxxxwwwwwxxxwwwwwx....vwxxxxwwwwwvu....
(PID.TID 0000.0001)     22 w...........xxyyyzyyyyyz...xx.yyzzzzzzzzzzzzzyyzyyyyyyxxwwxxxxwvvvwwxw......yyyyxxxxxxwxxw
(PID.TID 0000.0001)     21 xxx........xxxxyyzzzzzzz+.....zyzzzzzzz++zzzzyyyyyyyyxxwvvwwwwvvvvvvvu........yyyyyyyyyxxx
(PID.TID 0000.0001)     20 xww.......xyyyyxyyzzzzzz+......z.zzzzz+++zzzzzzyyyyyxxxxwvwxwvuuuuuuut.........yyyyxxxxwww
(PID.TID 0000.0001)     19 vvv.......yyyyxwwxyzyyzzzzz...zzz.....++++++z++z+zzzyyyyxxxxwwvvvvvvvu...........yyxxxwwww
(PID.TID 0000.0001)     18 uut.......zzyyywwxyzyyyyzzyzzzzzz...z+z++++zz+++++++zzzyyyyxxwwwvvvvvtt..........yyxxwvvwv
(PID.TID 0000.0001)     17 uus.......z.yyyyyyxyzzyyyyyyyzz.....yzzzzzzzzzzzzzzzzzzyyyyxxwwvuuvvuut.........yyyxxwttvu
(PID.TID 0000.0001)     16 utr......yy.zyyyyxxxxxxxwxxxxy.......yyyyyyyyyyyyyyyyyyyyyyyxxwvvvuuutts........xyyyxwvuuu
(PID.TID 0000.0001)     15 ttrr....xxx.xxxwxwwwwvwwvvvww.........xwxxxxxxxxxxxxxxxxxyyyxwwwvvuttssrr......wxxxxxwwvuu
(PID.TID 0000.0001)     14 ttsq....xyxwwxwvwwwvutuuuuuuu.........wwvwwwwvwvvwwwvwvvwwwwwwvvvuuutssrr.....vwwwwwwwvvvu
(PID.TID 0000.0001)     13 tttr....wwwvvvtttuuuutttssttt.........vvvuuuuuuutttttuuuuuvwwwuuuttttssrr....uvvvvvvvvvvut
(PID.TID 0000.0001)     12 sssssstttutssssrrrrrstrqqrrssqqrrq....uuttssssrrrrrrrrrrrstttssssrssrrqp.....uuuttssttssss
(PID.TID 0000.0001)     11 poprsssrqqqqqrqppooopqpoppppppppppp..sssrrr.rqpppqqqqppppqqqoppqqqqrqqpp....prsrqqqqqppppq
(PID.TID 0000.0001)     10 lllmoooonmnnmnnnnmmmmmmlmmlllmnnnnon.qqqppp.ppppppooooooooonmnnnonnooooo..nmoponnmnnnnnmll
(PID.TID 0000.0001)      9 ihhiiiihhhhhhiiihiiiiihhhiiiijjkkmnllnnnnn.mmmmnnnnmmmmnnmmlklllllklllll.mllmmllkjiijjihhi
(PID.TID 0000.0001)      8 eeeeeeeedefgggffeeffggffffggghiiiijjijklklkkkkkkkklllkkkkjjiiijkjjjjjjkj.kkjjiihggffffedde
(PID.TID 0000.0001)      7 cccccddeedddefeddddddddddefeefffffgggghiiiiiijjjihhgggghhhhhghhhhhhhiiiihiihhgfeddddddcccc
(PID.TID 0000.0001)      6 abbcccddcccccdddddccdddddddccddddddeeeeffggggghhgeddddddeeeeeeefggggghggggffeedccbbbbbbbba
(PID.TID 0000.0001)      5 bbbcccccccccccccccccccccbbccccdddddddcccddeeddeedcbbbbbbccccccdddeeeeeddddddccbbbbaaaaaaab
(PID.TID 0000.0001)      4 bbbbbbbaaabbbbbbbbbbbbaabbabbbbcbbbbbbbbbbbbbbbbbbbabbaaabbbbbbbbbbbbbbbbb..a--aaabbbaaabb
(PID.TID 0000.0001)      3 bbbbaaa-a-............................bbaaaaaaaaaaaaaaaaaaaaaaaaaaaaaaaab..aaaaaaaabbbaaaa
(PID.TID 0000.0001)      2 ..........................................baaaaaaaaaaaa-------aa..aaaa.....aaaaaaaaaaaa...
(PID.TID 0000.0001)      1 ..........................................................................................
(PID.TID 0000.0001) // =======================================================
(PID.TID 0000.0001) // END OF FIELD                                          =
(PID.TID 0000.0001) // =======================================================
(PID.TID 0000.0001) 
(PID.TID 0000.0001)  MDSREADFIELD: opening global file: lev_s.bin
(PID.TID 0000.0001) // =======================================================
(PID.TID 0000.0001) // Field Initial Salinity at iteration          1
(PID.TID 0000.0001) // CMIN =          2.975276947021484E+01
(PID.TID 0000.0001) // CMAX =          3.747562789916992E+01
(PID.TID 0000.0001) // CINT =          2.860317936650029E-01
(PID.TID 0000.0001) // SYMBOLS (CMIN->CMAX): -abcdefghijklmnopqrstuvwxyz+
(PID.TID 0000.0001) //                  0.0: .
(PID.TID 0000.0001) // RANGE I (Lo:Hi:Step):(   1:  90:   1)
(PID.TID 0000.0001) // RANGE J (Lo:Hi:Step):(  40:   1:  -1)
(PID.TID 0000.0001) // RANGE K (Lo:Hi:Step):(   1:   1:   1)
(PID.TID 0000.0001) // =======================================================
(PID.TID 0000.0001) K =   1
(PID.TID 0000.0001)                I=10      I=20      I=30      I=40      I=50      I=60      I=70      I=80      I=90
(PID.TID 0000.0001) |--J--|123456789|123456789|123456789|123456789|123456789|123456789|123456789|123456789|123456789|
(PID.TID 0000.0001)     40 qrrrr.oonnooopqtutt..................................................................mnnop
(PID.TID 0000.0001)     39 rssrrrrrrrqqpn...ut.....................................................mmmm........opqqqr
(PID.TID 0000.0001)     38 ssrrqqqqrrqpo...........................................................lkkll......onoqrrs
(PID.TID 0000.0001)     37 ssr..................................................................hg...lln...qppqr.rrrs
(PID.TID 0000.0001)     36 rr.........................................lkji....................feeegikmoop.pqrssssssss
(PID.TID 0000.0001)     35 rr.................................kkkk..lllllki...jijjj...........aa-....opqrrrrrrrssttss
(PID.TID 0000.0001)     34 ...................................jlll.kklllllk.ijkkkjih..................hlpqrqrrsstts..
(PID.TID 0000.0001)     33 ....................................iklkkkkkkkkkjkkjjjjjjii.................jmprrsstttttt.
(PID.TID 0000.0001)     32 ....................................iklllkllllllllkkkkkkkji................gilpstuuttuuut.
(PID.TID 0000.0001)     31 ....................................lmnonnnnoooonnmmmmllkjj..............loopqtvvvuuuuuu..
(PID.TID 0000.0001)     30 ...................................pppppppqqqqpppoooonnmlkk............ptvxwwvvwvvvvvvvu..
(PID.TID 0000.0001)     29 .................................pqqrqqqqqqrrrqqppqqqpponmll...........vxxxxxxwwwwwxwwxw..
(PID.TID 0000.0001)     28 ...............................prrrrrqqrrrrrsrrsrssssssrqonmm.........wxxxxxxxyyyyyyyyxx..
(PID.TID 0000.0001)     27 ..............xx..............prrrrrrrrrssssssstttssssssrqpoop...uwww.wwxxxyyy++zzzzyy....
(PID.TID 0000.0001)     26 ..............wxx...........ppqrrrrrrsssrrstsstttssrrrrrrrqppqqp.wwwvvwwwwwxyy+++zzyxw....
(PID.TID 0000.0001)     25 ..............wxxv...kkk...ooopqrrrrrssrrrrrrrssssqqpppppppppppoo...vvutuuvvwxyyyxxvvu....
(PID.TID 0000.0001)     24 ............uvvwwur.lmlk...nmm.pqqqqrrrrrqqqqrrqqrpppppooooonmmmnooo.uuuuuuttuvvvuvuut....
(PID.TID 0000.0001)     23 ............vvuvtqp.lmml...mln..ppppqpqppppppqpppppppppqppponnnnnoopm....xvuuuvvvvuuut....
(PID.TID 0000.0001)     22 r...........vuttsqqpnppn...mm.oppqqrrqqqqqqppppqqrrrqqqrrppppoopooomjj......uuvvvvvuttssrr
(PID.TID 0000.0001)     21 qmm........ttsssssssrsqon.....opqqqqqqqrrrrqqqssssssrrrrrrrrpqqqppomll........tvvvvuttssrr
(PID.TID 0000.0001)     20 sqq.......sttssrrsrrrrpol......p.qrqpqrrrrrrrstttttsssrrsssrqrrrrqqqpo.........wwwvvvuuutt
(PID.TID 0000.0001)     19 tsr.......ssssrrrrpppppnmmm...oqq.....qrqqsrrstttuuuttssttssrrssrrrrqq...........wwwvuvvvv
(PID.TID 0000.0001)     18 wut.......ssrrrrrqppppppppoooorrr...poqqqprrrttttuuutuuuuuutttttttutsss..........yyxwwxwxx
(PID.TID 0000.0001)     17 wwu.......s.rrrrrrqppppqqqqqqqr.....rrsrqrsssuusrtuuuvvvwwvvvuuuuutttss.........xyzyyyyxxx
(PID.TID 0000.0001)     16 vvt......ss.qrrssrqrqpqrrrrrrr.......ssrrstsstusrsuuuvwwwwxxwwvvvuttttsr........yz+zzzxwww
(PID.TID 0000.0001)     15 utss....stt.rrssstttsrrsrstsr.........ssstttssttsuuttuvvvvwxwwwwwuttsssrr......xyyyyxyyxwv
(PID.TID 0000.0001)     14 utts....sstrrssstuuuuuuuuuutt.........stttuutttttttuttttttuvvvvvvutsrqrrr.....vxxwwwwxwvwv
(PID.TID 0000.0001)     13 uuut....ttttttttuuuuuvtuuuuuu.........ttttuutttttttuutsssstttttstsqrqqppp....uwwwvuvvvutvv
(PID.TID 0000.0001)     12 ttttttttttttttttttttttssuuuuutuuut....tttttttttttsssssrrrrrrrqqqqqppppoo.....rvvuuttttttuu
(PID.TID 0000.0001)     11 rqsttttttttuuttttsssssrrstttttttsss..ttttts.tsssrrrrqqqqqppppoonnooooooo....oruttttsssrqrs
(PID.TID 0000.0001)     10 pppqrssrqqrqpqrssrrqqqqqqrrrrrrrrrrs.sssssr.rssrrqqpppppppooooonnnoooonn..moqrrrqqqqqqqqqq
(PID.TID 0000.0001)      9 oonooooooooonnnooooooooooppppppqqqqqrrrqrq.pppqqqqqppppppppppoooooooooll.lmoqqqqppooooopoo
(PID.TID 0000.0001)      8 nnnoonooooooonnnnnnnoooonoonoooppopqqqqqqqppopppqqqpppppppppppppppooopon.lnopppoooonnnnooo
(PID.TID 0000.0001)      7 ooooooooooopponnnooooooonnnnnonnooooooooopppppppoooooooooopppppppppoopqnnmnoooonnnonnnnnno
(PID.TID 0000.0001)      6 oooonnoonnnnooooooooooooonnnnnnnnnnnnnnnnoooopppooooooooooooooppppppppppoooooooonnnnnmnnnn
(PID.TID 0000.0001)      5 oooonnnnnnnnnnnnnnnnnoooooonnnnnnonnnnnnnnnoooooooooooonnnnnnooooooopoooonoooonnnnnnnooooo
(PID.TID 0000.0001)      4 oooonnnooonnnnnnnnnnnnnnoooooonnnooooonnnooooooooppponnnnmmmnnnnmnnoonnnnn..nnnooooooooooo
(PID.TID 0000.0001)      3 ooonnnnnnn............................nnoooooonnooooonnnnnnnoonnnnnnnnmmm..ooopooooooooooo
(PID.TID 0000.0001)      2 ..........................................pppooooonnnnnnoooppppo..nnnn.....qqqpppoooooo...
(PID.TID 0000.0001)      1 ..........................................................................................
(PID.TID 0000.0001) // =======================================================
(PID.TID 0000.0001) // END OF FIELD                                          =
(PID.TID 0000.0001) // =======================================================
(PID.TID 0000.0001) 
(PID.TID 0000.0001) Start initial hydrostatic pressure computation
(PID.TID 0000.0001) Pressure is predetermined for buoyancyRelation OCEANIC
(PID.TID 0000.0001) 
(PID.TID 0000.0001)  MDSREADFIELD: opening file: xx_theta.0000000000.001.001.data
(PID.TID 0000.0001)  MDSREADFIELD: opening file: g_xx_theta.0000000000.001.001.data
(PID.TID 0000.0001)  MDSREADFIELD: opening file: xx_salt.0000000000.001.001.data
(PID.TID 0000.0001)  MDSREADFIELD: opening file: g_xx_salt.0000000000.001.001.data
(PID.TID 0000.0001)  MDSREADFIELD: opening file: xx_diffkr.0000000000.001.001.data
(PID.TID 0000.0001)  MDSREADFIELD: opening file: g_xx_diffkr.0000000000.001.001.data
(PID.TID 0000.0001)  MDSREADFIELD: opening global file: trenberth_taux.bin
(PID.TID 0000.0001)  MDSREADFIELD: opening global file: trenberth_tauy.bin
(PID.TID 0000.0001)  MDSREADFIELD: opening global file: ncep_qnet.bin
(PID.TID 0000.0001)  MDSREADFIELD: opening global file: lev_sst.bin
(PID.TID 0000.0001)  MDSREADFIELD: opening global file: lev_sss.bin
(PID.TID 0000.0001) // =======================================================
(PID.TID 0000.0001) // Model current state
(PID.TID 0000.0001) // =======================================================
(PID.TID 0000.0001) 
(PID.TID 0000.0001) // =======================================================
(PID.TID 0000.0001) // Begin MONITOR dynamic field statistics
(PID.TID 0000.0001) // =======================================================
(PID.TID 0000.0001) %MON g__time_tsnumber             =                     0
(PID.TID 0000.0001) %MON g__time_secondsf             =   0.0000000000000E+00
(PID.TID 0000.0001) %MON g__dynstat_g_eta_max         =   0.0000000000000E+00
(PID.TID 0000.0001) %MON g__dynstat_g_eta_min         =   0.0000000000000E+00
(PID.TID 0000.0001) %MON g__dynstat_g_eta_mean        =   0.0000000000000E+00
(PID.TID 0000.0001) %MON g__dynstat_g_eta_sd          =   0.0000000000000E+00
(PID.TID 0000.0001) %MON g__dynstat_g_eta_del2        =   0.0000000000000E+00
(PID.TID 0000.0001) %MON g__dynstat_g_uvel_max        =   0.0000000000000E+00
(PID.TID 0000.0001) %MON g__dynstat_g_uvel_min        =   0.0000000000000E+00
(PID.TID 0000.0001) %MON g__dynstat_g_uvel_mean       =   0.0000000000000E+00
(PID.TID 0000.0001) %MON g__dynstat_g_uvel_sd         =   0.0000000000000E+00
(PID.TID 0000.0001) %MON g__dynstat_g_uvel_del2       =   0.0000000000000E+00
(PID.TID 0000.0001) %MON g__dynstat_g_vvel_max        =   0.0000000000000E+00
(PID.TID 0000.0001) %MON g__dynstat_g_vvel_min        =   0.0000000000000E+00
(PID.TID 0000.0001) %MON g__dynstat_g_vvel_mean       =   0.0000000000000E+00
(PID.TID 0000.0001) %MON g__dynstat_g_vvel_sd         =   0.0000000000000E+00
(PID.TID 0000.0001) %MON g__dynstat_g_vvel_del2       =   0.0000000000000E+00
(PID.TID 0000.0001) %MON g__dynstat_g_wvel_max        =   0.0000000000000E+00
(PID.TID 0000.0001) %MON g__dynstat_g_wvel_min        =   0.0000000000000E+00
(PID.TID 0000.0001) %MON g__dynstat_g_wvel_mean       =   0.0000000000000E+00
(PID.TID 0000.0001) %MON g__dynstat_g_wvel_sd         =   0.0000000000000E+00
(PID.TID 0000.0001) %MON g__dynstat_g_wvel_del2       =   0.0000000000000E+00
(PID.TID 0000.0001) %MON g__dynstat_g_theta_max       =   1.0000000000000E+00
(PID.TID 0000.0001) %MON g__dynstat_g_theta_min       =   0.0000000000000E+00
(PID.TID 0000.0001) %MON g__dynstat_g_theta_mean      =   2.0602468203094E-06
(PID.TID 0000.0001) %MON g__dynstat_g_theta_sd        =   1.4353545121997E-03
(PID.TID 0000.0001) %MON g__dynstat_g_theta_del2      =   3.4119212528575E-05
(PID.TID 0000.0001) %MON g__dynstat_g_salt_max        =   0.0000000000000E+00
(PID.TID 0000.0001) %MON g__dynstat_g_salt_min        =   0.0000000000000E+00
(PID.TID 0000.0001) %MON g__dynstat_g_salt_mean       =   0.0000000000000E+00
(PID.TID 0000.0001) %MON g__dynstat_g_salt_sd         =   0.0000000000000E+00
(PID.TID 0000.0001) %MON g__dynstat_g_salt_del2       =   0.0000000000000E+00
(PID.TID 0000.0001) %MON g__dynstat_g_sst_max         =   1.0000000000000E+00
(PID.TID 0000.0001) %MON g__dynstat_g_sst_min         =   0.0000000000000E+00
(PID.TID 0000.0001) %MON g__dynstat_g_sst_mean        =   1.5794542826321E-04
(PID.TID 0000.0001) %MON g__dynstat_g_sst_sd          =   1.2566641615997E-02
(PID.TID 0000.0001) %MON g__dynstat_g_sst_del2        =   4.3196544276458E-04
(PID.TID 0000.0001) %MON g__dynstat_g_sss_max         =   0.0000000000000E+00
(PID.TID 0000.0001) %MON g__dynstat_g_sss_min         =   0.0000000000000E+00
(PID.TID 0000.0001) %MON g__dynstat_g_sss_mean        =   0.0000000000000E+00
(PID.TID 0000.0001) %MON g__dynstat_g_sss_sd          =   0.0000000000000E+00
(PID.TID 0000.0001) %MON g__dynstat_g_sss_del2        =   0.0000000000000E+00
(PID.TID 0000.0001) %MON g__extforcing_g_qnet_max     =   0.0000000000000E+00
(PID.TID 0000.0001) %MON g__extforcing_g_qnet_min     =   0.0000000000000E+00
(PID.TID 0000.0001) %MON g__extforcing_g_qnet_mean    =   0.0000000000000E+00
(PID.TID 0000.0001) %MON g__extforcing_g_qnet_sd      =   0.0000000000000E+00
(PID.TID 0000.0001) %MON g__extforcing_g_qnet_del2    =   0.0000000000000E+00
(PID.TID 0000.0001) %MON g__extforcing_g_empmr_max    =   0.0000000000000E+00
(PID.TID 0000.0001) %MON g__extforcing_g_empmr_min    =   0.0000000000000E+00
(PID.TID 0000.0001) %MON g__extforcing_g_empmr_mean   =   0.0000000000000E+00
(PID.TID 0000.0001) %MON g__extforcing_g_empmr_sd     =   0.0000000000000E+00
(PID.TID 0000.0001) %MON g__extforcing_g_empmr_del2   =   0.0000000000000E+00
(PID.TID 0000.0001) %MON g__extforcing_g_fu_max       =   0.0000000000000E+00
(PID.TID 0000.0001) %MON g__extforcing_g_fu_min       =   0.0000000000000E+00
(PID.TID 0000.0001) %MON g__extforcing_g_fu_mean      =   0.0000000000000E+00
(PID.TID 0000.0001) %MON g__extforcing_g_fu_sd        =   0.0000000000000E+00
(PID.TID 0000.0001) %MON g__extforcing_g_fu_del2      =   0.0000000000000E+00
(PID.TID 0000.0001) %MON g__extforcing_g_fv_max       =   0.0000000000000E+00
(PID.TID 0000.0001) %MON g__extforcing_g_fv_min       =   0.0000000000000E+00
(PID.TID 0000.0001) %MON g__extforcing_g_fv_mean      =   0.0000000000000E+00
(PID.TID 0000.0001) %MON g__extforcing_g_fv_sd        =   0.0000000000000E+00
(PID.TID 0000.0001) %MON g__extforcing_g_fv_del2      =   0.0000000000000E+00
(PID.TID 0000.0001) %MON g__g_vcfl_g_uvel_max         =   0.0000000000000E+00
(PID.TID 0000.0001) %MON g__g_vcfl_g_vvel_max         =   0.0000000000000E+00
(PID.TID 0000.0001) %MON g__g_vcfl_g_wvel_max         =   0.0000000000000E+00
(PID.TID 0000.0001) %MON g__g_vcfl_g_W_hf_max         =   0.0000000000000E+00
(PID.TID 0000.0001) // =======================================================
(PID.TID 0000.0001) // End MONITOR dynamic field statistics
(PID.TID 0000.0001) // =======================================================
(PID.TID 0000.0001)  MDSREADFIELD: opening global file: trenberth_taux.bin
(PID.TID 0000.0001)  MDSREADFIELD: opening global file: trenberth_taux.bin
(PID.TID 0000.0001)  MDSREADFIELD: opening global file: trenberth_tauy.bin
(PID.TID 0000.0001)  MDSREADFIELD: opening global file: trenberth_tauy.bin
(PID.TID 0000.0001)  MDSREADFIELD: opening global file: ncep_qnet.bin
(PID.TID 0000.0001)  MDSREADFIELD: opening global file: ncep_qnet.bin
(PID.TID 0000.0001)  MDSREADFIELD: opening global file: lev_sst.bin
(PID.TID 0000.0001)  MDSREADFIELD: opening global file: lev_sst.bin
(PID.TID 0000.0001)  MDSREADFIELD: opening global file: lev_sss.bin
(PID.TID 0000.0001)  MDSREADFIELD: opening global file: lev_sss.bin
(PID.TID 0000.0001)  MDSREADFIELD: opening file: xx_tauu.0000000000.001.001.data
(PID.TID 0000.0001)  MDSREADFIELD: opening file: g_xx_tauu.0000000000.001.001.data
(PID.TID 0000.0001)  MDSREADFIELD: opening file: xx_tauv.0000000000.001.001.data
(PID.TID 0000.0001)  MDSREADFIELD: opening file: g_xx_tauv.0000000000.001.001.data
(PID.TID 0000.0001)  MDSREADFIELD: opening file: xx_sflux.0000000000.001.001.data
(PID.TID 0000.0001)  MDSREADFIELD: opening file: g_xx_sflux.0000000000.001.001.data
(PID.TID 0000.0001)  MDSREADFIELD: opening file: xx_hflux.0000000000.001.001.data
(PID.TID 0000.0001)  MDSREADFIELD: opening file: g_xx_hflux.0000000000.001.001.data
 myIter=  0
(PID.TID 0000.0001) // Model state written, timestep         0
(PID.TID 0000.0001) 
 cg2d: Sum(rhs),rhsMax =  -2.71917904859365E-16  3.12253655281790E-03
 cg2d: Sum(rhs),rhsMax =  -4.02455846426619E-15  2.53364304519873E+00
(PID.TID 0000.0001) // =======================================================
(PID.TID 0000.0001) // Begin MONITOR dynamic field statistics
(PID.TID 0000.0001) // =======================================================
(PID.TID 0000.0001) %MON g__time_tsnumber             =                     1
(PID.TID 0000.0001) %MON g__time_secondsf             =   4.3200000000000E+04
(PID.TID 0000.0001) %MON g__dynstat_g_eta_max         =   7.9116253358780E-04
(PID.TID 0000.0001) %MON g__dynstat_g_eta_min         =  -5.1218663357108E-04
(PID.TID 0000.0001) %MON g__dynstat_g_eta_mean        =   9.3721426567060E-21
(PID.TID 0000.0001) %MON g__dynstat_g_eta_sd          =   1.1941841784591E-05
(PID.TID 0000.0001) %MON g__dynstat_g_eta_del2        =   6.6708940696969E-07
(PID.TID 0000.0001) %MON g__dynstat_g_uvel_max        =   5.2252731046980E-06
(PID.TID 0000.0001) %MON g__dynstat_g_uvel_min        =  -2.2561630804114E-04
(PID.TID 0000.0001) %MON g__dynstat_g_uvel_mean       =  -4.4581386343297E-09
(PID.TID 0000.0001) %MON g__dynstat_g_uvel_sd         =   8.6579700056471E-07
(PID.TID 0000.0001) %MON g__dynstat_g_uvel_del2       =   2.7688588986179E-08
(PID.TID 0000.0001) %MON g__dynstat_g_vvel_max        =   5.2589368754056E-13
(PID.TID 0000.0001) %MON g__dynstat_g_vvel_min        =  -9.0725807327722E-05
(PID.TID 0000.0001) %MON g__dynstat_g_vvel_mean       =  -2.5661397251237E-09
(PID.TID 0000.0001) %MON g__dynstat_g_vvel_sd         =   3.8429682562133E-07
(PID.TID 0000.0001) %MON g__dynstat_g_vvel_del2       =   1.0607155661820E-08
(PID.TID 0000.0001) %MON g__dynstat_g_wvel_max        =   6.5930211132316E-07
(PID.TID 0000.0001) %MON g__dynstat_g_wvel_min        =  -4.3115120321998E-07
(PID.TID 0000.0001) %MON g__dynstat_g_wvel_mean       =   5.3488219501896E-28
(PID.TID 0000.0001) %MON g__dynstat_g_wvel_sd         =   2.0254719676428E-09
(PID.TID 0000.0001) %MON g__dynstat_g_wvel_del2       =   1.4943569950222E-10
(PID.TID 0000.0001) %MON g__dynstat_g_theta_max       =   9.8796718234139E-01
(PID.TID 0000.0001) %MON g__dynstat_g_theta_min       =   0.0000000000000E+00
(PID.TID 0000.0001) %MON g__dynstat_g_theta_mean      =   2.0430780968068E-06
(PID.TID 0000.0001) %MON g__dynstat_g_theta_sd        =   1.4180881122352E-03
(PID.TID 0000.0001) %MON g__dynstat_g_theta_del2      =   3.3684032309599E-05
(PID.TID 0000.0001) %MON g__dynstat_g_salt_max        =   1.8094525199240E-04
(PID.TID 0000.0001) %MON g__dynstat_g_salt_min        =  -1.7975499244234E-04
(PID.TID 0000.0001) %MON g__dynstat_g_salt_mean       =   9.7439306041414E-25
(PID.TID 0000.0001) %MON g__dynstat_g_salt_sd         =   3.7103200696485E-07
(PID.TID 0000.0001) %MON g__dynstat_g_salt_del2       =   1.8557328054504E-08
(PID.TID 0000.0001) %MON g__dynstat_g_sst_max         =   9.8796718234139E-01
(PID.TID 0000.0001) %MON g__dynstat_g_sst_min         =   0.0000000000000E+00
(PID.TID 0000.0001) %MON g__dynstat_g_sst_mean        =   1.5648080451585E-04
(PID.TID 0000.0001) %MON g__dynstat_g_sst_sd          =   1.2415465600908E-02
(PID.TID 0000.0001) %MON g__dynstat_g_sst_del2        =   4.2618041318732E-04
(PID.TID 0000.0001) %MON g__dynstat_g_sss_max         =   1.8094525199240E-04
(PID.TID 0000.0001) %MON g__dynstat_g_sss_min         =  -1.7975499244234E-04
(PID.TID 0000.0001) %MON g__dynstat_g_sss_mean        =   3.3226165684721E-09
(PID.TID 0000.0001) %MON g__dynstat_g_sss_sd          =   3.2132462014782E-06
(PID.TID 0000.0001) %MON g__dynstat_g_sss_del2        =   2.0870817183942E-07
(PID.TID 0000.0001) %MON g__extforcing_g_qnet_max     =   0.0000000000000E+00
(PID.TID 0000.0001) %MON g__extforcing_g_qnet_min     =   0.0000000000000E+00
(PID.TID 0000.0001) %MON g__extforcing_g_qnet_mean    =   0.0000000000000E+00
(PID.TID 0000.0001) %MON g__extforcing_g_qnet_sd      =   0.0000000000000E+00
(PID.TID 0000.0001) %MON g__extforcing_g_qnet_del2    =   0.0000000000000E+00
(PID.TID 0000.0001) %MON g__extforcing_g_empmr_max    =   0.0000000000000E+00
(PID.TID 0000.0001) %MON g__extforcing_g_empmr_min    =   0.0000000000000E+00
(PID.TID 0000.0001) %MON g__extforcing_g_empmr_mean   =   0.0000000000000E+00
(PID.TID 0000.0001) %MON g__extforcing_g_empmr_sd     =   0.0000000000000E+00
(PID.TID 0000.0001) %MON g__extforcing_g_empmr_del2   =   0.0000000000000E+00
(PID.TID 0000.0001) %MON g__extforcing_g_fu_max       =   0.0000000000000E+00
(PID.TID 0000.0001) %MON g__extforcing_g_fu_min       =   0.0000000000000E+00
(PID.TID 0000.0001) %MON g__extforcing_g_fu_mean      =   0.0000000000000E+00
(PID.TID 0000.0001) %MON g__extforcing_g_fu_sd        =   0.0000000000000E+00
(PID.TID 0000.0001) %MON g__extforcing_g_fu_del2      =   0.0000000000000E+00
(PID.TID 0000.0001) %MON g__extforcing_g_fv_max       =   0.0000000000000E+00
(PID.TID 0000.0001) %MON g__extforcing_g_fv_min       =   0.0000000000000E+00
(PID.TID 0000.0001) %MON g__extforcing_g_fv_mean      =   0.0000000000000E+00
(PID.TID 0000.0001) %MON g__extforcing_g_fv_sd        =   0.0000000000000E+00
(PID.TID 0000.0001) %MON g__extforcing_g_fv_del2      =   0.0000000000000E+00
(PID.TID 0000.0001) %MON g__g_vcfl_g_uvel_max         =   7.9513225034249E-05
(PID.TID 0000.0001) %MON g__g_vcfl_g_vvel_max         =   8.8132846483817E-06
(PID.TID 0000.0001) %MON g__g_vcfl_g_wvel_max         =   1.1392740483664E-03
(PID.TID 0000.0001) %MON g__g_vcfl_g_W_hf_max         =   1.1087082237328E-03
(PID.TID 0000.0001) // =======================================================
(PID.TID 0000.0001) // End MONITOR dynamic field statistics
(PID.TID 0000.0001) // =======================================================
 cg2d: Sum(rhs),rhsMax =  -2.21235929239487E-14  6.68362017042968E-03
 cg2d: Sum(rhs),rhsMax =   2.26207941267376E-14  5.05307478634995E+00
(PID.TID 0000.0001) // =======================================================
(PID.TID 0000.0001) // Begin MONITOR dynamic field statistics
(PID.TID 0000.0001) // =======================================================
(PID.TID 0000.0001) %MON g__time_tsnumber             =                     2
(PID.TID 0000.0001) %MON g__time_secondsf             =   8.6400000000000E+04
(PID.TID 0000.0001) %MON g__dynstat_g_eta_max         =   1.7515798991149E-03
(PID.TID 0000.0001) %MON g__dynstat_g_eta_min         =  -8.6207904811735E-04
(PID.TID 0000.0001) %MON g__dynstat_g_eta_mean        =   3.0354498684326E-20
(PID.TID 0000.0001) %MON g__dynstat_g_eta_sd          =   2.4923899675958E-05
(PID.TID 0000.0001) %MON g__dynstat_g_eta_del2        =   1.2804135736191E-06
(PID.TID 0000.0001) %MON g__dynstat_g_uvel_max        =   6.3860442912060E-05
(PID.TID 0000.0001) %MON g__dynstat_g_uvel_min        =  -2.8121237030773E-04
(PID.TID 0000.0001) %MON g__dynstat_g_uvel_mean       =  -7.5176573910249E-09
(PID.TID 0000.0001) %MON g__dynstat_g_uvel_sd         =   1.1505344090122E-06
(PID.TID 0000.0001) %MON g__dynstat_g_uvel_del2       =   3.9165653678276E-08
(PID.TID 0000.0001) %MON g__dynstat_g_vvel_max        =   4.6305981379358E-12
(PID.TID 0000.0001) %MON g__dynstat_g_vvel_min        =  -1.4373184401622E-04
(PID.TID 0000.0001) %MON g__dynstat_g_vvel_mean       =  -6.0569435830828E-09
(PID.TID 0000.0001) %MON g__dynstat_g_vvel_sd         =   6.5944773575194E-07
(PID.TID 0000.0001) %MON g__dynstat_g_vvel_del2       =   1.9448885123484E-08
(PID.TID 0000.0001) %MON g__dynstat_g_wvel_max        =   8.2315600531442E-07
(PID.TID 0000.0001) %MON g__dynstat_g_wvel_min        =  -3.5910398103587E-07
(PID.TID 0000.0001) %MON g__dynstat_g_wvel_mean       =  -5.7125763927524E-28
(PID.TID 0000.0001) %MON g__dynstat_g_wvel_sd         =   2.3847656227722E-09
(PID.TID 0000.0001) %MON g__dynstat_g_wvel_del2       =   1.6683520004943E-10
(PID.TID 0000.0001) %MON g__dynstat_g_theta_max       =   9.7783270123143E-01
(PID.TID 0000.0001) %MON g__dynstat_g_theta_min       =  -4.3185708401738E-05
(PID.TID 0000.0001) %MON g__dynstat_g_theta_mean      =   2.0341768147980E-06
(PID.TID 0000.0001) %MON g__dynstat_g_theta_sd        =   1.4035597768522E-03
(PID.TID 0000.0001) %MON g__dynstat_g_theta_del2      =   3.3329184381585E-05
(PID.TID 0000.0001) %MON g__dynstat_g_salt_max        =   2.7467202084564E-04
(PID.TID 0000.0001) %MON g__dynstat_g_salt_min        =  -2.2566067689184E-04
(PID.TID 0000.0001) %MON g__dynstat_g_salt_mean       =  -1.9750274801204E-10
(PID.TID 0000.0001) %MON g__dynstat_g_salt_sd         =   6.1802675217230E-07
(PID.TID 0000.0001) %MON g__dynstat_g_salt_del2       =   3.8546440938585E-08
(PID.TID 0000.0001) %MON g__dynstat_g_sst_max         =   9.7783270123143E-01
(PID.TID 0000.0001) %MON g__dynstat_g_sst_min         =  -4.1205273425445E-09
(PID.TID 0000.0001) %MON g__dynstat_g_sst_mean        =   1.5536641283807E-04
(PID.TID 0000.0001) %MON g__dynstat_g_sst_sd          =   1.2288236201747E-02
(PID.TID 0000.0001) %MON g__dynstat_g_sst_del2        =   4.2117168688324E-04
(PID.TID 0000.0001) %MON g__dynstat_g_sss_max         =   2.7467202084564E-04
(PID.TID 0000.0001) %MON g__dynstat_g_sss_min         =  -2.2566067689184E-04
(PID.TID 0000.0001) %MON g__dynstat_g_sss_mean        =   6.6002521070519E-09
(PID.TID 0000.0001) %MON g__dynstat_g_sss_sd          =   4.4860482582765E-06
(PID.TID 0000.0001) %MON g__dynstat_g_sss_del2        =   3.0913408897233E-07
(PID.TID 0000.0001) %MON g__extforcing_g_qnet_max     =   0.0000000000000E+00
(PID.TID 0000.0001) %MON g__extforcing_g_qnet_min     =   0.0000000000000E+00
(PID.TID 0000.0001) %MON g__extforcing_g_qnet_mean    =   0.0000000000000E+00
(PID.TID 0000.0001) %MON g__extforcing_g_qnet_sd      =   0.0000000000000E+00
(PID.TID 0000.0001) %MON g__extforcing_g_qnet_del2    =   0.0000000000000E+00
(PID.TID 0000.0001) %MON g__extforcing_g_empmr_max    =   0.0000000000000E+00
(PID.TID 0000.0001) %MON g__extforcing_g_empmr_min    =   0.0000000000000E+00
(PID.TID 0000.0001) %MON g__extforcing_g_empmr_mean   =   0.0000000000000E+00
(PID.TID 0000.0001) %MON g__extforcing_g_empmr_sd     =   0.0000000000000E+00
(PID.TID 0000.0001) %MON g__extforcing_g_empmr_del2   =   0.0000000000000E+00
(PID.TID 0000.0001) %MON g__extforcing_g_fu_max       =   0.0000000000000E+00
(PID.TID 0000.0001) %MON g__extforcing_g_fu_min       =   0.0000000000000E+00
(PID.TID 0000.0001) %MON g__extforcing_g_fu_mean      =   0.0000000000000E+00
(PID.TID 0000.0001) %MON g__extforcing_g_fu_sd        =   0.0000000000000E+00
(PID.TID 0000.0001) %MON g__extforcing_g_fu_del2      =   0.0000000000000E+00
(PID.TID 0000.0001) %MON g__extforcing_g_fv_max       =   0.0000000000000E+00
(PID.TID 0000.0001) %MON g__extforcing_g_fv_min       =   0.0000000000000E+00
(PID.TID 0000.0001) %MON g__extforcing_g_fv_mean      =   0.0000000000000E+00
(PID.TID 0000.0001) %MON g__extforcing_g_fv_sd        =   0.0000000000000E+00
(PID.TID 0000.0001) %MON g__extforcing_g_fv_del2      =   0.0000000000000E+00
(PID.TID 0000.0001) %MON g__g_vcfl_g_uvel_max         =   9.9106765272552E-05
(PID.TID 0000.0001) %MON g__g_vcfl_g_vvel_max         =   1.3962396055358E-05
(PID.TID 0000.0001) %MON g__g_vcfl_g_wvel_max         =   1.3830010063590E-03
(PID.TID 0000.0001) %MON g__g_vcfl_g_W_hf_max         =   1.4224135771833E-03
(PID.TID 0000.0001) // =======================================================
(PID.TID 0000.0001) // End MONITOR dynamic field statistics
(PID.TID 0000.0001) // =======================================================
 cg2d: Sum(rhs),rhsMax =  -5.08773689339874E-14  9.44188396217753E-03
 cg2d: Sum(rhs),rhsMax =   8.00089161590023E-14  6.32564766002462E+00
(PID.TID 0000.0001) // =======================================================
(PID.TID 0000.0001) // Begin MONITOR dynamic field statistics
(PID.TID 0000.0001) // =======================================================
(PID.TID 0000.0001) %MON g__time_tsnumber             =                     3
(PID.TID 0000.0001) %MON g__time_secondsf             =   1.2960000000000E+05
(PID.TID 0000.0001) %MON g__dynstat_g_eta_max         =   2.5617670212997E-03
(PID.TID 0000.0001) %MON g__dynstat_g_eta_min         =  -8.6548654645945E-04
(PID.TID 0000.0001) %MON g__dynstat_g_eta_mean        =   4.8432258348005E-20
(PID.TID 0000.0001) %MON g__dynstat_g_eta_sd          =   3.4692996522596E-05
(PID.TID 0000.0001) %MON g__dynstat_g_eta_del2        =   1.6881832933012E-06
(PID.TID 0000.0001) %MON g__dynstat_g_uvel_max        =   2.2212900773917E-04
(PID.TID 0000.0001) %MON g__dynstat_g_uvel_min        =  -2.5190943120531E-04
(PID.TID 0000.0001) %MON g__dynstat_g_uvel_mean       =  -9.6100322531540E-09
(PID.TID 0000.0001) %MON g__dynstat_g_uvel_sd         =   1.1909647740122E-06
(PID.TID 0000.0001) %MON g__dynstat_g_uvel_del2       =   5.2362693382474E-08
(PID.TID 0000.0001) %MON g__dynstat_g_vvel_max        =   4.0754282295043E-06
(PID.TID 0000.0001) %MON g__dynstat_g_vvel_min        =  -1.6877302401307E-04
(PID.TID 0000.0001) %MON g__dynstat_g_vvel_mean       =  -1.0808116054147E-08
(PID.TID 0000.0001) %MON g__dynstat_g_vvel_sd         =   8.5935323233244E-07
(PID.TID 0000.0001) %MON g__dynstat_g_vvel_del2       =   2.8295443741278E-08
(PID.TID 0000.0001) %MON g__dynstat_g_wvel_max        =   7.6629486492182E-07
(PID.TID 0000.0001) %MON g__dynstat_g_wvel_min        =  -1.4504624870306E-07
(PID.TID 0000.0001) %MON g__dynstat_g_wvel_mean       =   6.3234915482847E-28
(PID.TID 0000.0001) %MON g__dynstat_g_wvel_sd         =   2.1698875962627E-09
(PID.TID 0000.0001) %MON g__dynstat_g_wvel_del2       =   1.5147362929058E-10
(PID.TID 0000.0001) %MON g__dynstat_g_theta_max       =   9.6932939927993E-01
(PID.TID 0000.0001) %MON g__dynstat_g_theta_min       =  -5.4126370649264E-05
(PID.TID 0000.0001) %MON g__dynstat_g_theta_mean      =   2.0317060859708E-06
(PID.TID 0000.0001) %MON g__dynstat_g_theta_sd        =   1.3913926479893E-03
(PID.TID 0000.0001) %MON g__dynstat_g_theta_del2      =   3.3051516516562E-05
(PID.TID 0000.0001) %MON g__dynstat_g_salt_max        =   4.1056606081539E-04
(PID.TID 0000.0001) %MON g__dynstat_g_salt_min        =  -2.8084663628274E-04
(PID.TID 0000.0001) %MON g__dynstat_g_salt_mean       =  -4.9418474657414E-10
(PID.TID 0000.0001) %MON g__dynstat_g_salt_sd         =   9.2236630454394E-07
(PID.TID 0000.0001) %MON g__dynstat_g_salt_del2       =   5.8223480259174E-08
(PID.TID 0000.0001) %MON g__dynstat_g_sst_max         =   9.6932939927993E-01
(PID.TID 0000.0001) %MON g__dynstat_g_sst_min         =  -1.0346058241169E-08
(PID.TID 0000.0001) %MON g__dynstat_g_sst_mean        =   1.5451990152610E-04
(PID.TID 0000.0001) %MON g__dynstat_g_sst_sd          =   1.2181584523533E-02
(PID.TID 0000.0001) %MON g__dynstat_g_sst_del2        =   4.1688136335858E-04
(PID.TID 0000.0001) %MON g__dynstat_g_sss_max         =   4.1056606081539E-04
(PID.TID 0000.0001) %MON g__dynstat_g_sss_min         =  -2.8084663628274E-04
(PID.TID 0000.0001) %MON g__dynstat_g_sss_mean        =   9.0413152244372E-09
(PID.TID 0000.0001) %MON g__dynstat_g_sss_sd          =   6.2960501213550E-06
(PID.TID 0000.0001) %MON g__dynstat_g_sss_del2        =   4.4825121049674E-07
(PID.TID 0000.0001) %MON g__extforcing_g_qnet_max     =   0.0000000000000E+00
(PID.TID 0000.0001) %MON g__extforcing_g_qnet_min     =   0.0000000000000E+00
(PID.TID 0000.0001) %MON g__extforcing_g_qnet_mean    =   0.0000000000000E+00
(PID.TID 0000.0001) %MON g__extforcing_g_qnet_sd      =   0.0000000000000E+00
(PID.TID 0000.0001) %MON g__extforcing_g_qnet_del2    =   0.0000000000000E+00
(PID.TID 0000.0001) %MON g__extforcing_g_empmr_max    =   0.0000000000000E+00
(PID.TID 0000.0001) %MON g__extforcing_g_empmr_min    =   0.0000000000000E+00
(PID.TID 0000.0001) %MON g__extforcing_g_empmr_mean   =   0.0000000000000E+00
(PID.TID 0000.0001) %MON g__extforcing_g_empmr_sd     =   0.0000000000000E+00
(PID.TID 0000.0001) %MON g__extforcing_g_empmr_del2   =   0.0000000000000E+00
(PID.TID 0000.0001) %MON g__extforcing_g_fu_max       =   0.0000000000000E+00
(PID.TID 0000.0001) %MON g__extforcing_g_fu_min       =   0.0000000000000E+00
(PID.TID 0000.0001) %MON g__extforcing_g_fu_mean      =   0.0000000000000E+00
(PID.TID 0000.0001) %MON g__extforcing_g_fu_sd        =   0.0000000000000E+00
(PID.TID 0000.0001) %MON g__extforcing_g_fu_del2      =   0.0000000000000E+00
(PID.TID 0000.0001) %MON g__extforcing_g_fv_max       =   0.0000000000000E+00
(PID.TID 0000.0001) %MON g__extforcing_g_fv_min       =   0.0000000000000E+00
(PID.TID 0000.0001) %MON g__extforcing_g_fv_mean      =   0.0000000000000E+00
(PID.TID 0000.0001) %MON g__extforcing_g_fv_sd        =   0.0000000000000E+00
(PID.TID 0000.0001) %MON g__extforcing_g_fv_del2      =   0.0000000000000E+00
(PID.TID 0000.0001) %MON g__g_vcfl_g_uvel_max         =   8.8779625309819E-05
(PID.TID 0000.0001) %MON g__g_vcfl_g_vvel_max         =   1.6394945885930E-05
(PID.TID 0000.0001) %MON g__g_vcfl_g_wvel_max         =   1.1666694559461E-03
(PID.TID 0000.0001) %MON g__g_vcfl_g_W_hf_max         =   1.3241575265849E-03
(PID.TID 0000.0001) // =======================================================
(PID.TID 0000.0001) // End MONITOR dynamic field statistics
(PID.TID 0000.0001) // =======================================================
 cg2d: Sum(rhs),rhsMax =  -6.89453116083968E-14  1.10840171836571E-02
 cg2d: Sum(rhs),rhsMax =   5.81167058921750E-14  6.76202107413719E+00
(PID.TID 0000.0001) // =======================================================
(PID.TID 0000.0001) // Begin MONITOR dynamic field statistics
(PID.TID 0000.0001) // =======================================================
(PID.TID 0000.0001) %MON g__time_tsnumber             =                     4
(PID.TID 0000.0001) %MON g__time_secondsf             =   1.7280000000000E+05
(PID.TID 0000.0001) %MON g__dynstat_g_eta_max         =   3.1111153158714E-03
(PID.TID 0000.0001) %MON g__dynstat_g_eta_min         =  -5.9679170706661E-04
(PID.TID 0000.0001) %MON g__dynstat_g_eta_mean        =   2.0178236760491E-19
(PID.TID 0000.0001) %MON g__dynstat_g_eta_sd          =   4.0609422825741E-05
(PID.TID 0000.0001) %MON g__dynstat_g_eta_del2        =   1.8403846979864E-06
(PID.TID 0000.0001) %MON g__dynstat_g_uvel_max        =   3.8386021619599E-04
(PID.TID 0000.0001) %MON g__dynstat_g_uvel_min        =  -1.9393567382485E-04
(PID.TID 0000.0001) %MON g__dynstat_g_uvel_mean       =  -1.0752344686826E-08
(PID.TID 0000.0001) %MON g__dynstat_g_uvel_sd         =   1.1702531459932E-06
(PID.TID 0000.0001) %MON g__dynstat_g_uvel_del2       =   6.2350157564766E-08
(PID.TID 0000.0001) %MON g__dynstat_g_vvel_max        =   5.1921047206919E-05
(PID.TID 0000.0001) %MON g__dynstat_g_vvel_min        =  -1.7252830296338E-04
(PID.TID 0000.0001) %MON g__dynstat_g_vvel_mean       =  -1.6847426816352E-08
(PID.TID 0000.0001) %MON g__dynstat_g_vvel_sd         =   9.8758341933257E-07
(PID.TID 0000.0001) %MON g__dynstat_g_vvel_del2       =   3.5122921009626E-08
(PID.TID 0000.0001) %MON g__dynstat_g_wvel_max        =   6.2094504277558E-07
(PID.TID 0000.0001) %MON g__dynstat_g_wvel_min        =  -5.7352448814723E-08
(PID.TID 0000.0001) %MON g__dynstat_g_wvel_mean       =   4.1968570704948E-27
(PID.TID 0000.0001) %MON g__dynstat_g_wvel_sd         =   2.0013250738785E-09
(PID.TID 0000.0001) %MON g__dynstat_g_wvel_del2       =   1.3743659426385E-10
(PID.TID 0000.0001) %MON g__dynstat_g_theta_max       =   9.6336967505353E-01
(PID.TID 0000.0001) %MON g__dynstat_g_theta_min       =  -3.5901707134512E-05
(PID.TID 0000.0001) %MON g__dynstat_g_theta_mean      =   2.0397215972975E-06
(PID.TID 0000.0001) %MON g__dynstat_g_theta_sd        =   1.3829191809546E-03
(PID.TID 0000.0001) %MON g__dynstat_g_theta_del2      =   3.2916336950132E-05
(PID.TID 0000.0001) %MON g__dynstat_g_salt_max        =   5.8195281593927E-04
(PID.TID 0000.0001) %MON g__dynstat_g_salt_min        =  -3.5829290872646E-04
(PID.TID 0000.0001) %MON g__dynstat_g_salt_mean       =  -8.7034666575150E-10
(PID.TID 0000.0001) %MON g__dynstat_g_salt_sd         =   1.2349029224049E-06
(PID.TID 0000.0001) %MON g__dynstat_g_salt_del2       =   7.7752393964252E-08
(PID.TID 0000.0001) %MON g__dynstat_g_sst_max         =   9.6336967505353E-01
(PID.TID 0000.0001) %MON g__dynstat_g_sst_min         =  -2.5876873178623E-07
(PID.TID 0000.0001) %MON g__dynstat_g_sst_mean        =   1.5410379866135E-04
(PID.TID 0000.0001) %MON g__dynstat_g_sst_sd          =   1.2106975383511E-02
(PID.TID 0000.0001) %MON g__dynstat_g_sst_del2        =   4.1367715557929E-04
(PID.TID 0000.0001) %MON g__dynstat_g_sss_max         =   5.8195281593927E-04
(PID.TID 0000.0001) %MON g__dynstat_g_sss_min         =  -3.5829290872646E-04
(PID.TID 0000.0001) %MON g__dynstat_g_sss_mean        =   1.1405622353522E-08
(PID.TID 0000.0001) %MON g__dynstat_g_sss_sd          =   8.6537741777866E-06
(PID.TID 0000.0001) %MON g__dynstat_g_sss_del2        =   6.1710417483297E-07
(PID.TID 0000.0001) %MON g__extforcing_g_qnet_max     =   0.0000000000000E+00
(PID.TID 0000.0001) %MON g__extforcing_g_qnet_min     =   0.0000000000000E+00
(PID.TID 0000.0001) %MON g__extforcing_g_qnet_mean    =   0.0000000000000E+00
(PID.TID 0000.0001) %MON g__extforcing_g_qnet_sd      =   0.0000000000000E+00
(PID.TID 0000.0001) %MON g__extforcing_g_qnet_del2    =   0.0000000000000E+00
(PID.TID 0000.0001) %MON g__extforcing_g_empmr_max    =   0.0000000000000E+00
(PID.TID 0000.0001) %MON g__extforcing_g_empmr_min    =   0.0000000000000E+00
(PID.TID 0000.0001) %MON g__extforcing_g_empmr_mean   =   0.0000000000000E+00
(PID.TID 0000.0001) %MON g__extforcing_g_empmr_sd     =   0.0000000000000E+00
(PID.TID 0000.0001) %MON g__extforcing_g_empmr_del2   =   0.0000000000000E+00
(PID.TID 0000.0001) %MON g__extforcing_g_fu_max       =   0.0000000000000E+00
(PID.TID 0000.0001) %MON g__extforcing_g_fu_min       =   0.0000000000000E+00
(PID.TID 0000.0001) %MON g__extforcing_g_fu_mean      =   0.0000000000000E+00
(PID.TID 0000.0001) %MON g__extforcing_g_fu_sd        =   0.0000000000000E+00
(PID.TID 0000.0001) %MON g__extforcing_g_fu_del2      =   0.0000000000000E+00
(PID.TID 0000.0001) %MON g__extforcing_g_fv_max       =   0.0000000000000E+00
(PID.TID 0000.0001) %MON g__extforcing_g_fv_min       =   0.0000000000000E+00
(PID.TID 0000.0001) %MON g__extforcing_g_fv_mean      =   0.0000000000000E+00
(PID.TID 0000.0001) %MON g__extforcing_g_fv_sd        =   0.0000000000000E+00
(PID.TID 0000.0001) %MON g__extforcing_g_fv_del2      =   0.0000000000000E+00
(PID.TID 0000.0001) %MON g__g_vcfl_g_uvel_max         =   1.3528261328752E-04
(PID.TID 0000.0001) %MON g__g_vcfl_g_vvel_max         =   1.6759741122237E-05
(PID.TID 0000.0001) %MON g__g_vcfl_g_wvel_max         =   7.9106154418324E-04
(PID.TID 0000.0001) %MON g__g_vcfl_g_W_hf_max         =   1.0729930339162E-03
(PID.TID 0000.0001) // =======================================================
(PID.TID 0000.0001) // End MONITOR dynamic field statistics
(PID.TID 0000.0001) // =======================================================
 cg2d: Sum(rhs),rhsMax =  -2.68064433838794E-13  1.18321173383788E-02
 cg2d: Sum(rhs),rhsMax =   2.58022769816790E-14  6.91128535917371E+00
(PID.TID 0000.0001) // =======================================================
(PID.TID 0000.0001) // Begin MONITOR dynamic field statistics
(PID.TID 0000.0001) // =======================================================
(PID.TID 0000.0001) %MON g__time_tsnumber             =                     5
(PID.TID 0000.0001) %MON g__time_secondsf             =   2.1600000000000E+05
(PID.TID 0000.0001) %MON g__dynstat_g_eta_max         =   3.4234865038344E-03
(PID.TID 0000.0001) %MON g__dynstat_g_eta_min         =  -3.5152483916039E-04
(PID.TID 0000.0001) %MON g__dynstat_g_eta_mean        =   4.0367563348471E-19
(PID.TID 0000.0001) %MON g__dynstat_g_eta_sd          =   4.3725242025899E-05
(PID.TID 0000.0001) %MON g__dynstat_g_eta_del2        =   1.7788321709378E-06
(PID.TID 0000.0001) %MON g__dynstat_g_uvel_max        =   5.1477871211156E-04
(PID.TID 0000.0001) %MON g__dynstat_g_uvel_min        =  -1.4249737908962E-04
(PID.TID 0000.0001) %MON g__dynstat_g_uvel_mean       =  -1.0625928648616E-08
(PID.TID 0000.0001) %MON g__dynstat_g_uvel_sd         =   1.1572498912569E-06
(PID.TID 0000.0001) %MON g__dynstat_g_uvel_del2       =   6.6381479713518E-08
(PID.TID 0000.0001) %MON g__dynstat_g_vvel_max        =   1.0863410710427E-04
(PID.TID 0000.0001) %MON g__dynstat_g_vvel_min        =  -1.6354767667848E-04
(PID.TID 0000.0001) %MON g__dynstat_g_vvel_mean       =  -2.3880138865113E-08
(PID.TID 0000.0001) %MON g__dynstat_g_vvel_sd         =   1.0507582823211E-06
(PID.TID 0000.0001) %MON g__dynstat_g_vvel_del2       =   3.9907383639699E-08
(PID.TID 0000.0001) %MON g__dynstat_g_wvel_max        =   4.8402684264628E-07
(PID.TID 0000.0001) %MON g__dynstat_g_wvel_min        =  -2.0667826229642E-08
(PID.TID 0000.0001) %MON g__dynstat_g_wvel_mean       =  -8.1744689962709E-27
(PID.TID 0000.0001) %MON g__dynstat_g_wvel_sd         =   2.0233435452521E-09
(PID.TID 0000.0001) %MON g__dynstat_g_wvel_del2       =   1.4202431937820E-10
(PID.TID 0000.0001) %MON g__dynstat_g_theta_max       =   9.6060734545791E-01
(PID.TID 0000.0001) %MON g__dynstat_g_theta_min       =  -2.7863215190232E-05
(PID.TID 0000.0001) %MON g__dynstat_g_theta_mean      =   2.0615736763382E-06
(PID.TID 0000.0001) %MON g__dynstat_g_theta_sd        =   1.3791295644062E-03
(PID.TID 0000.0001) %MON g__dynstat_g_theta_del2      =   3.2967392585450E-05
(PID.TID 0000.0001) %MON g__dynstat_g_salt_max        =   7.7325573867888E-04
(PID.TID 0000.0001) %MON g__dynstat_g_salt_min        =  -4.5933347535897E-04
(PID.TID 0000.0001) %MON g__dynstat_g_salt_mean       =  -1.2804388774622E-09
(PID.TID 0000.0001) %MON g__dynstat_g_salt_sd         =   1.5513667205118E-06
(PID.TID 0000.0001) %MON g__dynstat_g_salt_del2       =   9.6900258516392E-08
(PID.TID 0000.0001) %MON g__dynstat_g_sst_max         =   9.6060734545791E-01
(PID.TID 0000.0001) %MON g__dynstat_g_sst_min         =  -4.4730313982208E-07
(PID.TID 0000.0001) %MON g__dynstat_g_sst_mean        =   1.5424749291989E-04
(PID.TID 0000.0001) %MON g__dynstat_g_sst_sd          =   1.2072642678368E-02
(PID.TID 0000.0001) %MON g__dynstat_g_sst_del2        =   4.1180725132580E-04
(PID.TID 0000.0001) %MON g__dynstat_g_sss_max         =   7.7325573867888E-04
(PID.TID 0000.0001) %MON g__dynstat_g_sss_min         =  -4.5933347535897E-04
(PID.TID 0000.0001) %MON g__dynstat_g_sss_mean        =   1.5171577280769E-08
(PID.TID 0000.0001) %MON g__dynstat_g_sss_sd          =   1.1372674543804E-05
(PID.TID 0000.0001) %MON g__dynstat_g_sss_del2        =   8.0005445528904E-07
(PID.TID 0000.0001) %MON g__extforcing_g_qnet_max     =   0.0000000000000E+00
(PID.TID 0000.0001) %MON g__extforcing_g_qnet_min     =   0.0000000000000E+00
(PID.TID 0000.0001) %MON g__extforcing_g_qnet_mean    =   0.0000000000000E+00
(PID.TID 0000.0001) %MON g__extforcing_g_qnet_sd      =   0.0000000000000E+00
(PID.TID 0000.0001) %MON g__extforcing_g_qnet_del2    =   0.0000000000000E+00
(PID.TID 0000.0001) %MON g__extforcing_g_empmr_max    =   0.0000000000000E+00
(PID.TID 0000.0001) %MON g__extforcing_g_empmr_min    =   0.0000000000000E+00
(PID.TID 0000.0001) %MON g__extforcing_g_empmr_mean   =   0.0000000000000E+00
(PID.TID 0000.0001) %MON g__extforcing_g_empmr_sd     =   0.0000000000000E+00
(PID.TID 0000.0001) %MON g__extforcing_g_empmr_del2   =   0.0000000000000E+00
(PID.TID 0000.0001) %MON g__extforcing_g_fu_max       =   0.0000000000000E+00
(PID.TID 0000.0001) %MON g__extforcing_g_fu_min       =   0.0000000000000E+00
(PID.TID 0000.0001) %MON g__extforcing_g_fu_mean      =   0.0000000000000E+00
(PID.TID 0000.0001) %MON g__extforcing_g_fu_sd        =   0.0000000000000E+00
(PID.TID 0000.0001) %MON g__extforcing_g_fu_del2      =   0.0000000000000E+00
(PID.TID 0000.0001) %MON g__extforcing_g_fv_max       =   0.0000000000000E+00
(PID.TID 0000.0001) %MON g__extforcing_g_fv_min       =   0.0000000000000E+00
(PID.TID 0000.0001) %MON g__extforcing_g_fv_mean      =   0.0000000000000E+00
(PID.TID 0000.0001) %MON g__extforcing_g_fv_sd        =   0.0000000000000E+00
(PID.TID 0000.0001) %MON g__extforcing_g_fv_del2      =   0.0000000000000E+00
(PID.TID 0000.0001) %MON g__g_vcfl_g_uvel_max         =   1.8142179496840E-04
(PID.TID 0000.0001) %MON g__g_vcfl_g_vvel_max         =   1.5887345294623E-05
(PID.TID 0000.0001) %MON g__g_vcfl_g_wvel_max         =   5.3753269737234E-04
(PID.TID 0000.0001) %MON g__g_vcfl_g_W_hf_max         =   8.3639838409277E-04
(PID.TID 0000.0001) // =======================================================
(PID.TID 0000.0001) // End MONITOR dynamic field statistics
(PID.TID 0000.0001) // =======================================================
 cg2d: Sum(rhs),rhsMax =  -5.27004643731187E-13  1.20649815720050E-02
 cg2d: Sum(rhs),rhsMax =   7.92421683826205E-14  6.96038704691243E+00
(PID.TID 0000.0001) // =======================================================
(PID.TID 0000.0001) // Begin MONITOR dynamic field statistics
(PID.TID 0000.0001) // =======================================================
(PID.TID 0000.0001) %MON g__time_tsnumber             =                     6
(PID.TID 0000.0001) %MON g__time_secondsf             =   2.5920000000000E+05
(PID.TID 0000.0001) %MON g__dynstat_g_eta_max         =   3.5750906334996E-03
(PID.TID 0000.0001) %MON g__dynstat_g_eta_min         =  -1.6233707675118E-04
(PID.TID 0000.0001) %MON g__dynstat_g_eta_mean        =   3.4515829213550E-19
(PID.TID 0000.0001) %MON g__dynstat_g_eta_sd          =   4.5331142865021E-05
(PID.TID 0000.0001) %MON g__dynstat_g_eta_del2        =   1.6790084448550E-06
(PID.TID 0000.0001) %MON g__dynstat_g_uvel_max        =   6.0372811204055E-04
(PID.TID 0000.0001) %MON g__dynstat_g_uvel_min        =  -1.1027356196535E-04
(PID.TID 0000.0001) %MON g__dynstat_g_uvel_mean       =  -8.7179690915755E-09
(PID.TID 0000.0001) %MON g__dynstat_g_uvel_sd         =   1.1524046351773E-06
(PID.TID 0000.0001) %MON g__dynstat_g_uvel_del2       =   6.4930486743283E-08
(PID.TID 0000.0001) %MON g__dynstat_g_vvel_max        =   1.6694909256906E-04
(PID.TID 0000.0001) %MON g__dynstat_g_vvel_min        =  -1.6222149303335E-04
(PID.TID 0000.0001) %MON g__dynstat_g_vvel_mean       =  -3.1237381604029E-08
(PID.TID 0000.0001) %MON g__dynstat_g_vvel_sd         =   1.0586710427918E-06
(PID.TID 0000.0001) %MON g__dynstat_g_vvel_del2       =   4.1276227214586E-08
(PID.TID 0000.0001) %MON g__dynstat_g_wvel_max        =   3.9369624958295E-07
(PID.TID 0000.0001) %MON g__dynstat_g_wvel_min        =  -1.8945462027824E-08
(PID.TID 0000.0001) %MON g__dynstat_g_wvel_mean       =   8.9090911886493E-28
(PID.TID 0000.0001) %MON g__dynstat_g_wvel_sd         =   2.0199648915740E-09
(PID.TID 0000.0001) %MON g__dynstat_g_wvel_del2       =   1.4746544486132E-10
(PID.TID 0000.0001) %MON g__dynstat_g_theta_max       =   9.6154899449872E-01
(PID.TID 0000.0001) %MON g__dynstat_g_theta_min       =  -3.5017048861439E-05
(PID.TID 0000.0001) %MON g__dynstat_g_theta_mean      =   2.1003008739243E-06
(PID.TID 0000.0001) %MON g__dynstat_g_theta_sd        =   1.3808435177374E-03
(PID.TID 0000.0001) %MON g__dynstat_g_theta_del2      =   3.3219087342611E-05
(PID.TID 0000.0001) %MON g__dynstat_g_salt_max        =   9.6930362662551E-04
(PID.TID 0000.0001) %MON g__dynstat_g_salt_min        =  -5.7790508675107E-04
(PID.TID 0000.0001) %MON g__dynstat_g_salt_mean       =  -1.6625741289782E-09
(PID.TID 0000.0001) %MON g__dynstat_g_salt_sd         =   1.8726839434611E-06
(PID.TID 0000.0001) %MON g__dynstat_g_salt_del2       =   1.1583503071002E-07
(PID.TID 0000.0001) %MON g__dynstat_g_sst_max         =   9.6154899449872E-01
(PID.TID 0000.0001) %MON g__dynstat_g_sst_min         =  -1.0073693089493E-06
(PID.TID 0000.0001) %MON g__dynstat_g_sst_mean        =   1.5505803249623E-04
(PID.TID 0000.0001) %MON g__dynstat_g_sst_sd          =   1.2084986980226E-02
(PID.TID 0000.0001) %MON g__dynstat_g_sst_del2        =   4.1145678834577E-04
(PID.TID 0000.0001) %MON g__dynstat_g_sss_max         =   9.6930362662551E-04
(PID.TID 0000.0001) %MON g__dynstat_g_sss_min         =  -5.7790508675107E-04
(PID.TID 0000.0001) %MON g__dynstat_g_sss_mean        =   2.2048140305514E-08
(PID.TID 0000.0001) %MON g__dynstat_g_sss_sd          =   1.4250833210328E-05
(PID.TID 0000.0001) %MON g__dynstat_g_sss_del2        =   9.8737165357396E-07
(PID.TID 0000.0001) %MON g__extforcing_g_qnet_max     =   0.0000000000000E+00
(PID.TID 0000.0001) %MON g__extforcing_g_qnet_min     =   0.0000000000000E+00
(PID.TID 0000.0001) %MON g__extforcing_g_qnet_mean    =   0.0000000000000E+00
(PID.TID 0000.0001) %MON g__extforcing_g_qnet_sd      =   0.0000000000000E+00
(PID.TID 0000.0001) %MON g__extforcing_g_qnet_del2    =   0.0000000000000E+00
(PID.TID 0000.0001) %MON g__extforcing_g_empmr_max    =   0.0000000000000E+00
(PID.TID 0000.0001) %MON g__extforcing_g_empmr_min    =   0.0000000000000E+00
(PID.TID 0000.0001) %MON g__extforcing_g_empmr_mean   =   0.0000000000000E+00
(PID.TID 0000.0001) %MON g__extforcing_g_empmr_sd     =   0.0000000000000E+00
(PID.TID 0000.0001) %MON g__extforcing_g_empmr_del2   =   0.0000000000000E+00
(PID.TID 0000.0001) %MON g__extforcing_g_fu_max       =   0.0000000000000E+00
(PID.TID 0000.0001) %MON g__extforcing_g_fu_min       =   0.0000000000000E+00
(PID.TID 0000.0001) %MON g__extforcing_g_fu_mean      =   0.0000000000000E+00
(PID.TID 0000.0001) %MON g__extforcing_g_fu_sd        =   0.0000000000000E+00
(PID.TID 0000.0001) %MON g__extforcing_g_fu_del2      =   0.0000000000000E+00
(PID.TID 0000.0001) %MON g__extforcing_g_fv_max       =   0.0000000000000E+00
(PID.TID 0000.0001) %MON g__extforcing_g_fv_min       =   0.0000000000000E+00
(PID.TID 0000.0001) %MON g__extforcing_g_fv_mean      =   0.0000000000000E+00
(PID.TID 0000.0001) %MON g__extforcing_g_fv_sd        =   0.0000000000000E+00
(PID.TID 0000.0001) %MON g__extforcing_g_fv_del2      =   0.0000000000000E+00
(PID.TID 0000.0001) %MON g__g_vcfl_g_uvel_max         =   2.1276994402119E-04
(PID.TID 0000.0001) %MON g__g_vcfl_g_vvel_max         =   1.6217765572317E-05
(PID.TID 0000.0001) %MON g__g_vcfl_g_wvel_max         =   4.8321013688287E-04
(PID.TID 0000.0001) %MON g__g_vcfl_g_W_hf_max         =   6.8030711927933E-04
(PID.TID 0000.0001) // =======================================================
(PID.TID 0000.0001) // End MONITOR dynamic field statistics
(PID.TID 0000.0001) // =======================================================
 cg2d: Sum(rhs),rhsMax =  -4.48830419588514E-13  1.21012172041978E-02
 cg2d: Sum(rhs),rhsMax =   4.38633504518116E-14  7.26221759046284E+00
(PID.TID 0000.0001) // =======================================================
(PID.TID 0000.0001) // Begin MONITOR dynamic field statistics
(PID.TID 0000.0001) // =======================================================
(PID.TID 0000.0001) %MON g__time_tsnumber             =                     7
(PID.TID 0000.0001) %MON g__time_secondsf             =   3.0240000000000E+05
(PID.TID 0000.0001) %MON g__dynstat_g_eta_max         =   3.6414384382196E-03
(PID.TID 0000.0001) %MON g__dynstat_g_eta_min         =  -1.0995335566139E-04
(PID.TID 0000.0001) %MON g__dynstat_g_eta_mean        =   3.0411688186846E-19
(PID.TID 0000.0001) %MON g__dynstat_g_eta_sd          =   4.6298694769475E-05
(PID.TID 0000.0001) %MON g__dynstat_g_eta_del2        =   1.6643770102243E-06
(PID.TID 0000.0001) %MON g__dynstat_g_uvel_max        =   6.5420217660118E-04
(PID.TID 0000.0001) %MON g__dynstat_g_uvel_min        =  -9.9054976528650E-05
(PID.TID 0000.0001) %MON g__dynstat_g_uvel_mean       =  -4.6498939241738E-09
(PID.TID 0000.0001) %MON g__dynstat_g_uvel_sd         =   1.1492844961599E-06
(PID.TID 0000.0001) %MON g__dynstat_g_uvel_del2       =   6.1154652996452E-08
(PID.TID 0000.0001) %MON g__dynstat_g_vvel_max        =   2.2209897208466E-04
(PID.TID 0000.0001) %MON g__dynstat_g_vvel_min        =  -1.5145737492321E-04
(PID.TID 0000.0001) %MON g__dynstat_g_vvel_mean       =  -3.8010066364148E-08
(PID.TID 0000.0001) %MON g__dynstat_g_vvel_sd         =   1.0274721140153E-06
(PID.TID 0000.0001) %MON g__dynstat_g_vvel_del2       =   4.0117166856184E-08
(PID.TID 0000.0001) %MON g__dynstat_g_wvel_max        =   3.5019490126185E-07
(PID.TID 0000.0001) %MON g__dynstat_g_wvel_min        =  -4.5180264020484E-08
(PID.TID 0000.0001) %MON g__dynstat_g_wvel_mean       =  -4.9492442090684E-27
(PID.TID 0000.0001) %MON g__dynstat_g_wvel_sd         =   1.8417830541758E-09
(PID.TID 0000.0001) %MON g__dynstat_g_wvel_del2       =   1.5019176670970E-10
(PID.TID 0000.0001) %MON g__dynstat_g_theta_max       =   9.6642411561783E-01
(PID.TID 0000.0001) %MON g__dynstat_g_theta_min       =  -3.5627190996302E-05
(PID.TID 0000.0001) %MON g__dynstat_g_theta_mean      =   2.1579450860611E-06
(PID.TID 0000.0001) %MON g__dynstat_g_theta_sd        =   1.3885268552578E-03
(PID.TID 0000.0001) %MON g__dynstat_g_theta_del2      =   3.3683977765854E-05
(PID.TID 0000.0001) %MON g__dynstat_g_salt_max        =   1.1626135893902E-03
(PID.TID 0000.0001) %MON g__dynstat_g_salt_min        =  -7.0789749430829E-04
(PID.TID 0000.0001) %MON g__dynstat_g_salt_mean       =  -1.9495219886954E-09
(PID.TID 0000.0001) %MON g__dynstat_g_salt_sd         =   2.1992071385346E-06
(PID.TID 0000.0001) %MON g__dynstat_g_salt_del2       =   1.3550588329662E-07
(PID.TID 0000.0001) %MON g__dynstat_g_sst_max         =   9.6642411561783E-01
(PID.TID 0000.0001) %MON g__dynstat_g_sst_min         =  -3.6821152006011E-06
(PID.TID 0000.0001) %MON g__dynstat_g_sst_mean        =   1.5659165885031E-04
(PID.TID 0000.0001) %MON g__dynstat_g_sst_sd          =   1.2146937013121E-02
(PID.TID 0000.0001) %MON g__dynstat_g_sst_del2        =   4.1270423925978E-04
(PID.TID 0000.0001) %MON g__dynstat_g_sss_max         =   1.1626135893902E-03
(PID.TID 0000.0001) %MON g__dynstat_g_sss_min         =  -7.0789749430829E-04
(PID.TID 0000.0001) %MON g__dynstat_g_sss_mean        =   3.3266599009057E-08
(PID.TID 0000.0001) %MON g__dynstat_g_sss_sd          =   1.7179523541895E-05
(PID.TID 0000.0001) %MON g__dynstat_g_sss_del2        =   1.1805723981714E-06
(PID.TID 0000.0001) %MON g__extforcing_g_qnet_max     =   0.0000000000000E+00
(PID.TID 0000.0001) %MON g__extforcing_g_qnet_min     =   0.0000000000000E+00
(PID.TID 0000.0001) %MON g__extforcing_g_qnet_mean    =   0.0000000000000E+00
(PID.TID 0000.0001) %MON g__extforcing_g_qnet_sd      =   0.0000000000000E+00
(PID.TID 0000.0001) %MON g__extforcing_g_qnet_del2    =   0.0000000000000E+00
(PID.TID 0000.0001) %MON g__extforcing_g_empmr_max    =   0.0000000000000E+00
(PID.TID 0000.0001) %MON g__extforcing_g_empmr_min    =   0.0000000000000E+00
(PID.TID 0000.0001) %MON g__extforcing_g_empmr_mean   =   0.0000000000000E+00
(PID.TID 0000.0001) %MON g__extforcing_g_empmr_sd     =   0.0000000000000E+00
(PID.TID 0000.0001) %MON g__extforcing_g_empmr_del2   =   0.0000000000000E+00
(PID.TID 0000.0001) %MON g__extforcing_g_fu_max       =   0.0000000000000E+00
(PID.TID 0000.0001) %MON g__extforcing_g_fu_min       =   0.0000000000000E+00
(PID.TID 0000.0001) %MON g__extforcing_g_fu_mean      =   0.0000000000000E+00
(PID.TID 0000.0001) %MON g__extforcing_g_fu_sd        =   0.0000000000000E+00
(PID.TID 0000.0001) %MON g__extforcing_g_fu_del2      =   0.0000000000000E+00
(PID.TID 0000.0001) %MON g__extforcing_g_fv_max       =   0.0000000000000E+00
(PID.TID 0000.0001) %MON g__extforcing_g_fv_min       =   0.0000000000000E+00
(PID.TID 0000.0001) %MON g__extforcing_g_fv_mean      =   0.0000000000000E+00
(PID.TID 0000.0001) %MON g__extforcing_g_fv_sd        =   0.0000000000000E+00
(PID.TID 0000.0001) %MON g__extforcing_g_fv_del2      =   0.0000000000000E+00
(PID.TID 0000.0001) %MON g__g_vcfl_g_uvel_max         =   2.3055835518991E-04
(PID.TID 0000.0001) %MON g__g_vcfl_g_vvel_max         =   2.1575134118393E-05
(PID.TID 0000.0001) %MON g__g_vcfl_g_wvel_max         =   3.3959233216134E-04
(PID.TID 0000.0001) %MON g__g_vcfl_g_W_hf_max         =   6.0513678938048E-04
(PID.TID 0000.0001) // =======================================================
(PID.TID 0000.0001) // End MONITOR dynamic field statistics
(PID.TID 0000.0001) // =======================================================
 cg2d: Sum(rhs),rhsMax =  -3.94808581126631E-13  1.21300102409924E-02
 cg2d: Sum(rhs),rhsMax =  -1.71390516796183E-13  7.87499194900245E+00
(PID.TID 0000.0001) // =======================================================
(PID.TID 0000.0001) // Begin MONITOR dynamic field statistics
(PID.TID 0000.0001) // =======================================================
(PID.TID 0000.0001) %MON g__time_tsnumber             =                     8
(PID.TID 0000.0001) %MON g__time_secondsf             =   3.4560000000000E+05
(PID.TID 0000.0001) %MON g__dynstat_g_eta_max         =   3.6751111095068E-03
(PID.TID 0000.0001) %MON g__dynstat_g_eta_min         =  -1.0906805190917E-04
(PID.TID 0000.0001) %MON g__dynstat_g_eta_mean        =   2.9309030159064E-19
(PID.TID 0000.0001) %MON g__dynstat_g_eta_sd          =   4.6998212311032E-05
(PID.TID 0000.0001) %MON g__dynstat_g_eta_del2        =   1.7723506301412E-06
(PID.TID 0000.0001) %MON g__dynstat_g_uvel_max        =   6.7562587579283E-04
(PID.TID 0000.0001) %MON g__dynstat_g_uvel_min        =  -1.0023145948463E-04
(PID.TID 0000.0001) %MON g__dynstat_g_uvel_mean       =   1.5552839533999E-09
(PID.TID 0000.0001) %MON g__dynstat_g_uvel_sd         =   1.1517860756702E-06
(PID.TID 0000.0001) %MON g__dynstat_g_uvel_del2       =   5.7614732622470E-08
(PID.TID 0000.0001) %MON g__dynstat_g_vvel_max        =   2.7143605351396E-04
(PID.TID 0000.0001) %MON g__dynstat_g_vvel_min        =  -1.3616357943345E-04
(PID.TID 0000.0001) %MON g__dynstat_g_vvel_mean       =  -4.3295688283732E-08
(PID.TID 0000.0001) %MON g__dynstat_g_vvel_sd         =   9.8004096765246E-07
(PID.TID 0000.0001) %MON g__dynstat_g_vvel_del2       =   3.8592426106426E-08
(PID.TID 0000.0001) %MON g__dynstat_g_wvel_max        =   3.3792627966275E-07
(PID.TID 0000.0001) %MON g__dynstat_g_wvel_min        =  -1.3370524271535E-07
(PID.TID 0000.0001) %MON g__dynstat_g_wvel_mean       =  -1.8258418180293E-27
(PID.TID 0000.0001) %MON g__dynstat_g_wvel_sd         =   1.5661220243951E-09
(PID.TID 0000.0001) %MON g__dynstat_g_wvel_del2       =   1.4127904607049E-10
(PID.TID 0000.0001) %MON g__dynstat_g_theta_max       =   9.7519055656287E-01
(PID.TID 0000.0001) %MON g__dynstat_g_theta_min       =  -4.9075684113302E-05
(PID.TID 0000.0001) %MON g__dynstat_g_theta_mean      =   2.2354079692397E-06
(PID.TID 0000.0001) %MON g__dynstat_g_theta_sd        =   1.4022914401456E-03
(PID.TID 0000.0001) %MON g__dynstat_g_theta_del2      =   3.4360424222300E-05
(PID.TID 0000.0001) %MON g__dynstat_g_salt_max        =   1.3532669930988E-03
(PID.TID 0000.0001) %MON g__dynstat_g_salt_min        =  -8.4589382999248E-04
(PID.TID 0000.0001) %MON g__dynstat_g_salt_mean       =  -2.0805594286036E-09
(PID.TID 0000.0001) %MON g__dynstat_g_salt_sd         =   2.5322068963675E-06
(PID.TID 0000.0001) %MON g__dynstat_g_salt_del2       =   1.5549637421203E-07
(PID.TID 0000.0001) %MON g__dynstat_g_sst_max         =   9.7519055656287E-01
(PID.TID 0000.0001) %MON g__dynstat_g_sst_min         =  -4.9075684113302E-05
(PID.TID 0000.0001) %MON g__dynstat_g_sst_mean        =   1.5885195254201E-04
(PID.TID 0000.0001) %MON g__dynstat_g_sst_sd          =   1.2258013251074E-02
(PID.TID 0000.0001) %MON g__dynstat_g_sst_del2        =   4.1551722867090E-04
(PID.TID 0000.0001) %MON g__dynstat_g_sss_max         =   1.3532669930988E-03
(PID.TID 0000.0001) %MON g__dynstat_g_sss_min         =  -8.4589382999248E-04
(PID.TID 0000.0001) %MON g__dynstat_g_sss_mean        =   4.9068028188454E-08
(PID.TID 0000.0001) %MON g__dynstat_g_sss_sd          =   2.0142081951625E-05
(PID.TID 0000.0001) %MON g__dynstat_g_sss_del2        =   1.3751545578981E-06
(PID.TID 0000.0001) %MON g__extforcing_g_qnet_max     =   0.0000000000000E+00
(PID.TID 0000.0001) %MON g__extforcing_g_qnet_min     =   0.0000000000000E+00
(PID.TID 0000.0001) %MON g__extforcing_g_qnet_mean    =   0.0000000000000E+00
(PID.TID 0000.0001) %MON g__extforcing_g_qnet_sd      =   0.0000000000000E+00
(PID.TID 0000.0001) %MON g__extforcing_g_qnet_del2    =   0.0000000000000E+00
(PID.TID 0000.0001) %MON g__extforcing_g_empmr_max    =   0.0000000000000E+00
(PID.TID 0000.0001) %MON g__extforcing_g_empmr_min    =   0.0000000000000E+00
(PID.TID 0000.0001) %MON g__extforcing_g_empmr_mean   =   0.0000000000000E+00
(PID.TID 0000.0001) %MON g__extforcing_g_empmr_sd     =   0.0000000000000E+00
(PID.TID 0000.0001) %MON g__extforcing_g_empmr_del2   =   0.0000000000000E+00
(PID.TID 0000.0001) %MON g__extforcing_g_fu_max       =   0.0000000000000E+00
(PID.TID 0000.0001) %MON g__extforcing_g_fu_min       =   0.0000000000000E+00
(PID.TID 0000.0001) %MON g__extforcing_g_fu_mean      =   0.0000000000000E+00
(PID.TID 0000.0001) %MON g__extforcing_g_fu_sd        =   0.0000000000000E+00
(PID.TID 0000.0001) %MON g__extforcing_g_fu_del2      =   0.0000000000000E+00
(PID.TID 0000.0001) %MON g__extforcing_g_fv_max       =   0.0000000000000E+00
(PID.TID 0000.0001) %MON g__extforcing_g_fv_min       =   0.0000000000000E+00
(PID.TID 0000.0001) %MON g__extforcing_g_fv_mean      =   0.0000000000000E+00
(PID.TID 0000.0001) %MON g__extforcing_g_fv_sd        =   0.0000000000000E+00
(PID.TID 0000.0001) %MON g__extforcing_g_fv_del2      =   0.0000000000000E+00
(PID.TID 0000.0001) %MON g__g_vcfl_g_uvel_max         =   2.3810864013908E-04
(PID.TID 0000.0001) %MON g__g_vcfl_g_vvel_max         =   2.6367835943422E-05
(PID.TID 0000.0001) %MON g__g_vcfl_g_wvel_max         =   2.5276892869099E-04
(PID.TID 0000.0001) %MON g__g_vcfl_g_W_hf_max         =   5.8393661125723E-04
(PID.TID 0000.0001) // =======================================================
(PID.TID 0000.0001) // End MONITOR dynamic field statistics
(PID.TID 0000.0001) // =======================================================
 cg2d: Sum(rhs),rhsMax =  -3.77792550184944E-13  1.22276369049974E-02
 cg2d: Sum(rhs),rhsMax =  -5.51802527282153E-14  8.21213972807561E+00
(PID.TID 0000.0001) // =======================================================
(PID.TID 0000.0001) // Begin MONITOR dynamic field statistics
(PID.TID 0000.0001) // =======================================================
(PID.TID 0000.0001) %MON g__time_tsnumber             =                     9
(PID.TID 0000.0001) %MON g__time_secondsf             =   3.8880000000000E+05
(PID.TID 0000.0001) %MON g__dynstat_g_eta_max         =   3.7040544321449E-03
(PID.TID 0000.0001) %MON g__dynstat_g_eta_min         =  -1.1803743504689E-04
(PID.TID 0000.0001) %MON g__dynstat_g_eta_mean        =   3.6109819624475E-19
(PID.TID 0000.0001) %MON g__dynstat_g_eta_sd          =   4.7514209275317E-05
(PID.TID 0000.0001) %MON g__dynstat_g_eta_del2        =   1.8487333268977E-06
(PID.TID 0000.0001) %MON g__dynstat_g_uvel_max        =   6.7765153720624E-04
(PID.TID 0000.0001) %MON g__dynstat_g_uvel_min        =  -1.0675890770123E-04
(PID.TID 0000.0001) %MON g__dynstat_g_uvel_mean       =   9.3981618653049E-09
(PID.TID 0000.0001) %MON g__dynstat_g_uvel_sd         =   1.1638670716136E-06
(PID.TID 0000.0001) %MON g__dynstat_g_uvel_del2       =   5.5776115634390E-08
(PID.TID 0000.0001) %MON g__dynstat_g_vvel_max        =   3.1374749501311E-04
(PID.TID 0000.0001) %MON g__dynstat_g_vvel_min        =  -1.2067584185821E-04
(PID.TID 0000.0001) %MON g__dynstat_g_vvel_mean       =  -4.6444514936199E-08
(PID.TID 0000.0001) %MON g__dynstat_g_vvel_sd         =   9.4145357166409E-07
(PID.TID 0000.0001) %MON g__dynstat_g_vvel_del2       =   3.9052478815807E-08
(PID.TID 0000.0001) %MON g__dynstat_g_wvel_max        =   3.4014596838196E-07
(PID.TID 0000.0001) %MON g__dynstat_g_wvel_min        =  -2.0158615587173E-07
(PID.TID 0000.0001) %MON g__dynstat_g_wvel_mean       =  -1.0192069137984E-28
(PID.TID 0000.0001) %MON g__dynstat_g_wvel_sd         =   1.4512353583425E-09
(PID.TID 0000.0001) %MON g__dynstat_g_wvel_del2       =   1.4105803920325E-10
(PID.TID 0000.0001) %MON g__dynstat_g_theta_max       =   9.8760475670268E-01
(PID.TID 0000.0001) %MON g__dynstat_g_theta_min       =  -8.6648876706699E-05
(PID.TID 0000.0001) %MON g__dynstat_g_theta_mean      =   2.3326111864800E-06
(PID.TID 0000.0001) %MON g__dynstat_g_theta_sd        =   1.4219806437385E-03
(PID.TID 0000.0001) %MON g__dynstat_g_theta_del2      =   3.5239733045020E-05
(PID.TID 0000.0001) %MON g__dynstat_g_salt_max        =   1.5456135037758E-03
(PID.TID 0000.0001) %MON g__dynstat_g_salt_min        =  -9.9126010512981E-04
(PID.TID 0000.0001) %MON g__dynstat_g_salt_mean       =  -2.0158617388038E-09
(PID.TID 0000.0001) %MON g__dynstat_g_salt_sd         =   2.8746153714354E-06
(PID.TID 0000.0001) %MON g__dynstat_g_salt_del2       =   1.7590447314358E-07
(PID.TID 0000.0001) %MON g__dynstat_g_sst_max         =   9.8760475670268E-01
(PID.TID 0000.0001) %MON g__dynstat_g_sst_min         =  -8.6648876706699E-05
(PID.TID 0000.0001) %MON g__dynstat_g_sst_mean        =   1.6179852477457E-04
(PID.TID 0000.0001) %MON g__dynstat_g_sst_sd          =   1.2415208887982E-02
(PID.TID 0000.0001) %MON g__dynstat_g_sst_del2        =   4.1977790477138E-04
(PID.TID 0000.0001) %MON g__dynstat_g_sss_max         =   1.5456135037758E-03
(PID.TID 0000.0001) %MON g__dynstat_g_sss_min         =  -9.9126010512981E-04
(PID.TID 0000.0001) %MON g__dynstat_g_sss_mean        =   6.8516906098165E-08
(PID.TID 0000.0001) %MON g__dynstat_g_sss_sd          =   2.3178316122898E-05
(PID.TID 0000.0001) %MON g__dynstat_g_sss_del2        =   1.5759125615312E-06
(PID.TID 0000.0001) %MON g__extforcing_g_qnet_max     =   0.0000000000000E+00
(PID.TID 0000.0001) %MON g__extforcing_g_qnet_min     =   0.0000000000000E+00
(PID.TID 0000.0001) %MON g__extforcing_g_qnet_mean    =   0.0000000000000E+00
(PID.TID 0000.0001) %MON g__extforcing_g_qnet_sd      =   0.0000000000000E+00
(PID.TID 0000.0001) %MON g__extforcing_g_qnet_del2    =   0.0000000000000E+00
(PID.TID 0000.0001) %MON g__extforcing_g_empmr_max    =   0.0000000000000E+00
(PID.TID 0000.0001) %MON g__extforcing_g_empmr_min    =   0.0000000000000E+00
(PID.TID 0000.0001) %MON g__extforcing_g_empmr_mean   =   0.0000000000000E+00
(PID.TID 0000.0001) %MON g__extforcing_g_empmr_sd     =   0.0000000000000E+00
(PID.TID 0000.0001) %MON g__extforcing_g_empmr_del2   =   0.0000000000000E+00
(PID.TID 0000.0001) %MON g__extforcing_g_fu_max       =   0.0000000000000E+00
(PID.TID 0000.0001) %MON g__extforcing_g_fu_min       =   0.0000000000000E+00
(PID.TID 0000.0001) %MON g__extforcing_g_fu_mean      =   0.0000000000000E+00
(PID.TID 0000.0001) %MON g__extforcing_g_fu_sd        =   0.0000000000000E+00
(PID.TID 0000.0001) %MON g__extforcing_g_fu_del2      =   0.0000000000000E+00
(PID.TID 0000.0001) %MON g__extforcing_g_fv_max       =   0.0000000000000E+00
(PID.TID 0000.0001) %MON g__extforcing_g_fv_min       =   0.0000000000000E+00
(PID.TID 0000.0001) %MON g__extforcing_g_fv_mean      =   0.0000000000000E+00
(PID.TID 0000.0001) %MON g__extforcing_g_fv_sd        =   0.0000000000000E+00
(PID.TID 0000.0001) %MON g__extforcing_g_fv_del2      =   0.0000000000000E+00
(PID.TID 0000.0001) %MON g__g_vcfl_g_uvel_max         =   2.3882253743315E-04
(PID.TID 0000.0001) %MON g__g_vcfl_g_vvel_max         =   3.0478053188096E-05
(PID.TID 0000.0001) %MON g__g_vcfl_g_wvel_max         =   2.4490509723501E-04
(PID.TID 0000.0001) %MON g__g_vcfl_g_W_hf_max         =   5.8777223336403E-04
(PID.TID 0000.0001) // =======================================================
(PID.TID 0000.0001) // End MONITOR dynamic field statistics
(PID.TID 0000.0001) // =======================================================
 cg2d: Sum(rhs),rhsMax =  -4.58467466484774E-13  1.24026418865109E-02
 cg2d: Sum(rhs),rhsMax =  -3.50788842418126E-13  8.31512136376633E+00
(PID.TID 0000.0001) // =======================================================
(PID.TID 0000.0001) // Begin MONITOR dynamic field statistics
(PID.TID 0000.0001) // =======================================================
(PID.TID 0000.0001) %MON g__time_tsnumber             =                    10
(PID.TID 0000.0001) %MON g__time_secondsf             =   4.3200000000000E+05
(PID.TID 0000.0001) %MON g__dynstat_g_eta_max         =   3.7389411549087E-03
(PID.TID 0000.0001) %MON g__dynstat_g_eta_min         =  -1.3058748252906E-04
(PID.TID 0000.0001) %MON g__dynstat_g_eta_mean        =   4.4643470142874E-19
(PID.TID 0000.0001) %MON g__dynstat_g_eta_sd          =   4.7887633071257E-05
(PID.TID 0000.0001) %MON g__dynstat_g_eta_del2        =   1.8883350453469E-06
(PID.TID 0000.0001) %MON g__dynstat_g_uvel_max        =   6.6766952967839E-04
(PID.TID 0000.0001) %MON g__dynstat_g_uvel_min        =  -1.1388402225778E-04
(PID.TID 0000.0001) %MON g__dynstat_g_uvel_mean       =   1.8024214490628E-08
(PID.TID 0000.0001) %MON g__dynstat_g_uvel_sd         =   1.1800633697127E-06
(PID.TID 0000.0001) %MON g__dynstat_g_uvel_del2       =   6.3477304840107E-08
(PID.TID 0000.0001) %MON g__dynstat_g_vvel_max        =   3.4867268716397E-04
(PID.TID 0000.0001) %MON g__dynstat_g_vvel_min        =  -1.0788450250262E-04
(PID.TID 0000.0001) %MON g__dynstat_g_vvel_mean       =  -4.7206288094519E-08
(PID.TID 0000.0001) %MON g__dynstat_g_vvel_sd         =   9.2941682176630E-07
(PID.TID 0000.0001) %MON g__dynstat_g_vvel_del2       =   4.0243949363310E-08
(PID.TID 0000.0001) %MON g__dynstat_g_wvel_max        =   3.4542946092360E-07
(PID.TID 0000.0001) %MON g__dynstat_g_wvel_min        =  -2.4236597574859E-07
(PID.TID 0000.0001) %MON g__dynstat_g_wvel_mean       =   5.6396119315050E-28
(PID.TID 0000.0001) %MON g__dynstat_g_wvel_sd         =   1.6352416869070E-09
(PID.TID 0000.0001) %MON g__dynstat_g_wvel_del2       =   1.5757064342218E-10
(PID.TID 0000.0001) %MON g__dynstat_g_theta_max       =   1.0032725661999E+00
(PID.TID 0000.0001) %MON g__dynstat_g_theta_min       =  -1.0330997829430E-04
(PID.TID 0000.0001) %MON g__dynstat_g_theta_mean      =   2.4486222176020E-06
(PID.TID 0000.0001) %MON g__dynstat_g_theta_sd        =   1.4472219010448E-03
(PID.TID 0000.0001) %MON g__dynstat_g_theta_del2      =   3.6305408333881E-05
(PID.TID 0000.0001) %MON g__dynstat_g_salt_max        =   1.7446811235893E-03
(PID.TID 0000.0001) %MON g__dynstat_g_salt_min        =  -1.1450950179685E-03
(PID.TID 0000.0001) %MON g__dynstat_g_salt_mean       =  -1.7497494891163E-09
(PID.TID 0000.0001) %MON g__dynstat_g_salt_sd         =   3.2303790245341E-06
(PID.TID 0000.0001) %MON g__dynstat_g_salt_del2       =   1.9578283947849E-07
(PID.TID 0000.0001) %MON g__dynstat_g_sst_max         =   1.0032725661999E+00
(PID.TID 0000.0001) %MON g__dynstat_g_sst_min         =  -1.0330997829430E-04
(PID.TID 0000.0001) %MON g__dynstat_g_sst_mean        =   1.6536689826978E-04
(PID.TID 0000.0001) %MON g__dynstat_g_sst_sd          =   1.2613626842940E-02
(PID.TID 0000.0001) %MON g__dynstat_g_sst_del2        =   4.2529937308323E-04
(PID.TID 0000.0001) %MON g__dynstat_g_sss_max         =   1.7446811235893E-03
(PID.TID 0000.0001) %MON g__dynstat_g_sss_min         =  -1.1450950179685E-03
(PID.TID 0000.0001) %MON g__dynstat_g_sss_mean        =   9.0549825325477E-08
(PID.TID 0000.0001) %MON g__dynstat_g_sss_sd          =   2.6345007201404E-05
(PID.TID 0000.0001) %MON g__dynstat_g_sss_del2        =   1.7845456183090E-06
(PID.TID 0000.0001) %MON g__extforcing_g_qnet_max     =   0.0000000000000E+00
(PID.TID 0000.0001) %MON g__extforcing_g_qnet_min     =   0.0000000000000E+00
(PID.TID 0000.0001) %MON g__extforcing_g_qnet_mean    =   0.0000000000000E+00
(PID.TID 0000.0001) %MON g__extforcing_g_qnet_sd      =   0.0000000000000E+00
(PID.TID 0000.0001) %MON g__extforcing_g_qnet_del2    =   0.0000000000000E+00
(PID.TID 0000.0001) %MON g__extforcing_g_empmr_max    =   0.0000000000000E+00
(PID.TID 0000.0001) %MON g__extforcing_g_empmr_min    =   0.0000000000000E+00
(PID.TID 0000.0001) %MON g__extforcing_g_empmr_mean   =   0.0000000000000E+00
(PID.TID 0000.0001) %MON g__extforcing_g_empmr_sd     =   0.0000000000000E+00
(PID.TID 0000.0001) %MON g__extforcing_g_empmr_del2   =   0.0000000000000E+00
(PID.TID 0000.0001) %MON g__extforcing_g_fu_max       =   0.0000000000000E+00
(PID.TID 0000.0001) %MON g__extforcing_g_fu_min       =   0.0000000000000E+00
(PID.TID 0000.0001) %MON g__extforcing_g_fu_mean      =   0.0000000000000E+00
(PID.TID 0000.0001) %MON g__extforcing_g_fu_sd        =   0.0000000000000E+00
(PID.TID 0000.0001) %MON g__extforcing_g_fu_del2      =   0.0000000000000E+00
(PID.TID 0000.0001) %MON g__extforcing_g_fv_max       =   0.0000000000000E+00
(PID.TID 0000.0001) %MON g__extforcing_g_fv_min       =   0.0000000000000E+00
(PID.TID 0000.0001) %MON g__extforcing_g_fv_mean      =   0.0000000000000E+00
(PID.TID 0000.0001) %MON g__extforcing_g_fv_sd        =   0.0000000000000E+00
(PID.TID 0000.0001) %MON g__extforcing_g_fv_del2      =   0.0000000000000E+00
(PID.TID 0000.0001) %MON g__g_vcfl_g_uvel_max         =   2.3530461083579E-04
(PID.TID 0000.0001) %MON g__g_vcfl_g_vvel_max         =   3.3870755539183E-05
(PID.TID 0000.0001) %MON g__g_vcfl_g_wvel_max         =   2.4870921186499E-04
(PID.TID 0000.0001) %MON g__g_vcfl_g_W_hf_max         =   5.9690210847598E-04
(PID.TID 0000.0001) // =======================================================
(PID.TID 0000.0001) // End MONITOR dynamic field statistics
(PID.TID 0000.0001) // =======================================================
 myIter=  10
(PID.TID 0000.0001) // Model state written, timestep        10
(PID.TID 0000.0001) 
 cg2d: Sum(rhs),rhsMax =  -5.55695813084044E-13  1.26367719399681E-02
 cg2d: Sum(rhs),rhsMax =  -4.96371173330790E-13  8.25257067290290E+00
(PID.TID 0000.0001) // =======================================================
(PID.TID 0000.0001) // Begin MONITOR dynamic field statistics
(PID.TID 0000.0001) // =======================================================
(PID.TID 0000.0001) %MON g__time_tsnumber             =                    11
(PID.TID 0000.0001) %MON g__time_secondsf             =   4.7520000000000E+05
(PID.TID 0000.0001) %MON g__dynstat_g_eta_max         =   3.7818717888249E-03
(PID.TID 0000.0001) %MON g__dynstat_g_eta_min         =  -1.3421255383009E-04
(PID.TID 0000.0001) %MON g__dynstat_g_eta_mean        =   6.1151478273806E-19
(PID.TID 0000.0001) %MON g__dynstat_g_eta_sd          =   4.8220565889929E-05
(PID.TID 0000.0001) %MON g__dynstat_g_eta_del2        =   1.8865515811149E-06
(PID.TID 0000.0001) %MON g__dynstat_g_uvel_max        =   6.5042353113706E-04
(PID.TID 0000.0001) %MON g__dynstat_g_uvel_min        =  -1.1940886696629E-04
(PID.TID 0000.0001) %MON g__dynstat_g_uvel_mean       =   2.6454877017918E-08
(PID.TID 0000.0001) %MON g__dynstat_g_uvel_sd         =   1.1883446548841E-06
(PID.TID 0000.0001) %MON g__dynstat_g_uvel_del2       =   7.0171560178947E-08
(PID.TID 0000.0001) %MON g__dynstat_g_vvel_max        =   3.7635069701180E-04
(PID.TID 0000.0001) %MON g__dynstat_g_vvel_min        =  -9.9377861834597E-05
(PID.TID 0000.0001) %MON g__dynstat_g_vvel_mean       =  -4.5741834827884E-08
(PID.TID 0000.0001) %MON g__dynstat_g_vvel_sd         =   9.4655291731652E-07
(PID.TID 0000.0001) %MON g__dynstat_g_vvel_del2       =   4.2127844847928E-08
(PID.TID 0000.0001) %MON g__dynstat_g_wvel_max        =   3.4858610418918E-07
(PID.TID 0000.0001) %MON g__dynstat_g_wvel_min        =  -2.5918240509194E-07
(PID.TID 0000.0001) %MON g__dynstat_g_wvel_mean       =   5.9253474313336E-27
(PID.TID 0000.0001) %MON g__dynstat_g_wvel_sd         =   1.9219562963112E-09
(PID.TID 0000.0001) %MON g__dynstat_g_wvel_del2       =   1.7417874878031E-10
(PID.TID 0000.0001) %MON g__dynstat_g_theta_max       =   1.0216161687533E+00
(PID.TID 0000.0001) %MON g__dynstat_g_theta_min       =  -9.4536201895856E-05
(PID.TID 0000.0001) %MON g__dynstat_g_theta_mean      =   2.5814439864369E-06
(PID.TID 0000.0001) %MON g__dynstat_g_theta_sd        =   1.4773482096086E-03
(PID.TID 0000.0001) %MON g__dynstat_g_theta_del2      =   3.7530387081962E-05
(PID.TID 0000.0001) %MON g__dynstat_g_salt_max        =   1.9536110623950E-03
(PID.TID 0000.0001) %MON g__dynstat_g_salt_min        =  -1.3089152900559E-03
(PID.TID 0000.0001) %MON g__dynstat_g_salt_mean       =  -1.3105578831738E-09
(PID.TID 0000.0001) %MON g__dynstat_g_salt_sd         =   3.6030486099593E-06
(PID.TID 0000.0001) %MON g__dynstat_g_salt_del2       =   2.1522246580653E-07
(PID.TID 0000.0001) %MON g__dynstat_g_sst_max         =   1.0216161687533E+00
(PID.TID 0000.0001) %MON g__dynstat_g_sst_min         =  -9.4536201895856E-05
(PID.TID 0000.0001) %MON g__dynstat_g_sst_mean        =   1.6945231370377E-04
(PID.TID 0000.0001) %MON g__dynstat_g_sst_sd          =   1.2846057609732E-02
(PID.TID 0000.0001) %MON g__dynstat_g_sst_del2        =   4.3184618257349E-04
(PID.TID 0000.0001) %MON g__dynstat_g_sss_max         =   1.9536110623950E-03
(PID.TID 0000.0001) %MON g__dynstat_g_sss_min         =  -1.3089152900559E-03
(PID.TID 0000.0001) %MON g__dynstat_g_sss_mean        =   1.1333687581917E-07
(PID.TID 0000.0001) %MON g__dynstat_g_sss_sd          =   2.9683711641662E-05
(PID.TID 0000.0001) %MON g__dynstat_g_sss_del2        =   2.0015906984772E-06
(PID.TID 0000.0001) %MON g__extforcing_g_qnet_max     =   0.0000000000000E+00
(PID.TID 0000.0001) %MON g__extforcing_g_qnet_min     =   0.0000000000000E+00
(PID.TID 0000.0001) %MON g__extforcing_g_qnet_mean    =   0.0000000000000E+00
(PID.TID 0000.0001) %MON g__extforcing_g_qnet_sd      =   0.0000000000000E+00
(PID.TID 0000.0001) %MON g__extforcing_g_qnet_del2    =   0.0000000000000E+00
(PID.TID 0000.0001) %MON g__extforcing_g_empmr_max    =   0.0000000000000E+00
(PID.TID 0000.0001) %MON g__extforcing_g_empmr_min    =   0.0000000000000E+00
(PID.TID 0000.0001) %MON g__extforcing_g_empmr_mean   =   0.0000000000000E+00
(PID.TID 0000.0001) %MON g__extforcing_g_empmr_sd     =   0.0000000000000E+00
(PID.TID 0000.0001) %MON g__extforcing_g_empmr_del2   =   0.0000000000000E+00
(PID.TID 0000.0001) %MON g__extforcing_g_fu_max       =   0.0000000000000E+00
(PID.TID 0000.0001) %MON g__extforcing_g_fu_min       =   0.0000000000000E+00
(PID.TID 0000.0001) %MON g__extforcing_g_fu_mean      =   0.0000000000000E+00
(PID.TID 0000.0001) %MON g__extforcing_g_fu_sd        =   0.0000000000000E+00
(PID.TID 0000.0001) %MON g__extforcing_g_fu_del2      =   0.0000000000000E+00
(PID.TID 0000.0001) %MON g__extforcing_g_fv_max       =   0.0000000000000E+00
(PID.TID 0000.0001) %MON g__extforcing_g_fv_min       =   0.0000000000000E+00
(PID.TID 0000.0001) %MON g__extforcing_g_fv_mean      =   0.0000000000000E+00
(PID.TID 0000.0001) %MON g__extforcing_g_fv_sd        =   0.0000000000000E+00
(PID.TID 0000.0001) %MON g__extforcing_g_fv_del2      =   0.0000000000000E+00
(PID.TID 0000.0001) %MON g__g_vcfl_g_uvel_max         =   2.2922665940194E-04
(PID.TID 0000.0001) %MON g__g_vcfl_g_vvel_max         =   3.6559452244945E-05
(PID.TID 0000.0001) %MON g__g_vcfl_g_wvel_max         =   2.5098199501621E-04
(PID.TID 0000.0001) %MON g__g_vcfl_g_W_hf_max         =   6.0235678803890E-04
(PID.TID 0000.0001) // =======================================================
(PID.TID 0000.0001) // End MONITOR dynamic field statistics
(PID.TID 0000.0001) // =======================================================
 cg2d: Sum(rhs),rhsMax =  -7.44611386890103E-13  1.29101226516781E-02
 cg2d: Sum(rhs),rhsMax =  -5.23452808876002E-13  8.09293762885827E+00
(PID.TID 0000.0001) // =======================================================
(PID.TID 0000.0001) // Begin MONITOR dynamic field statistics
(PID.TID 0000.0001) // =======================================================
(PID.TID 0000.0001) %MON g__time_tsnumber             =                    12
(PID.TID 0000.0001) %MON g__time_secondsf             =   5.1840000000000E+05
(PID.TID 0000.0001) %MON g__dynstat_g_eta_max         =   3.8327452234066E-03
(PID.TID 0000.0001) %MON g__dynstat_g_eta_min         =  -1.2822206786707E-04
(PID.TID 0000.0001) %MON g__dynstat_g_eta_mean        =   7.8785215856825E-19
(PID.TID 0000.0001) %MON g__dynstat_g_eta_sd          =   4.8648262877914E-05
(PID.TID 0000.0001) %MON g__dynstat_g_eta_del2        =   1.8598166113889E-06
(PID.TID 0000.0001) %MON g__dynstat_g_uvel_max        =   6.2856193999325E-04
(PID.TID 0000.0001) %MON g__dynstat_g_uvel_min        =  -1.2297200834110E-04
(PID.TID 0000.0001) %MON g__dynstat_g_uvel_mean       =   3.3821428907125E-08
(PID.TID 0000.0001) %MON g__dynstat_g_uvel_sd         =   1.1788363152592E-06
(PID.TID 0000.0001) %MON g__dynstat_g_uvel_del2       =   7.4146576535532E-08
(PID.TID 0000.0001) %MON g__dynstat_g_vvel_max        =   3.9726538725301E-04
(PID.TID 0000.0001) %MON g__dynstat_g_vvel_min        =  -9.7970998561142E-05
(PID.TID 0000.0001) %MON g__dynstat_g_vvel_mean       =  -4.2524764539930E-08
(PID.TID 0000.0001) %MON g__dynstat_g_vvel_sd         =   9.8340709990126E-07
(PID.TID 0000.0001) %MON g__dynstat_g_vvel_del2       =   4.3646166538372E-08
(PID.TID 0000.0001) %MON g__dynstat_g_wvel_max        =   3.4892272080256E-07
(PID.TID 0000.0001) %MON g__dynstat_g_wvel_min        =  -2.5793951806347E-07
(PID.TID 0000.0001) %MON g__dynstat_g_wvel_mean       =  -6.2280973700990E-27
(PID.TID 0000.0001) %MON g__dynstat_g_wvel_sd         =   2.1037361170093E-09
(PID.TID 0000.0001) %MON g__dynstat_g_wvel_del2       =   1.8753670235460E-10
(PID.TID 0000.0001) %MON g__dynstat_g_theta_max       =   1.0417583189605E+00
(PID.TID 0000.0001) %MON g__dynstat_g_theta_min       =  -6.3494007724343E-05
(PID.TID 0000.0001) %MON g__dynstat_g_theta_mean      =   2.7273285562084E-06
(PID.TID 0000.0001) %MON g__dynstat_g_theta_sd        =   1.5111801126888E-03
(PID.TID 0000.0001) %MON g__dynstat_g_theta_del2      =   3.8878529233658E-05
(PID.TID 0000.0001) %MON g__dynstat_g_salt_max        =   2.1723413324484E-03
(PID.TID 0000.0001) %MON g__dynstat_g_salt_min        =  -1.4833952009271E-03
(PID.TID 0000.0001) %MON g__dynstat_g_salt_mean       =  -7.4965656943595E-10
(PID.TID 0000.0001) %MON g__dynstat_g_salt_sd         =   3.9939923466376E-06
(PID.TID 0000.0001) %MON g__dynstat_g_salt_del2       =   2.3433819796105E-07
(PID.TID 0000.0001) %MON g__dynstat_g_sst_max         =   1.0417583189605E+00
(PID.TID 0000.0001) %MON g__dynstat_g_sst_min         =  -6.3494007724343E-05
(PID.TID 0000.0001) %MON g__dynstat_g_sst_mean        =   1.7389415602251E-04
(PID.TID 0000.0001) %MON g__dynstat_g_sst_sd          =   1.3101507756628E-02
(PID.TID 0000.0001) %MON g__dynstat_g_sst_del2        =   4.3907612695109E-04
(PID.TID 0000.0001) %MON g__dynstat_g_sss_max         =   2.1723413324484E-03
(PID.TID 0000.0001) %MON g__dynstat_g_sss_min         =  -1.4833952009271E-03
(PID.TID 0000.0001) %MON g__dynstat_g_sss_mean        =   1.3536247016626E-07
(PID.TID 0000.0001) %MON g__dynstat_g_sss_sd          =   3.3198700262328E-05
(PID.TID 0000.0001) %MON g__dynstat_g_sss_del2        =   2.2272599093837E-06
(PID.TID 0000.0001) %MON g__extforcing_g_qnet_max     =   0.0000000000000E+00
(PID.TID 0000.0001) %MON g__extforcing_g_qnet_min     =   0.0000000000000E+00
(PID.TID 0000.0001) %MON g__extforcing_g_qnet_mean    =   0.0000000000000E+00
(PID.TID 0000.0001) %MON g__extforcing_g_qnet_sd      =   0.0000000000000E+00
(PID.TID 0000.0001) %MON g__extforcing_g_qnet_del2    =   0.0000000000000E+00
(PID.TID 0000.0001) %MON g__extforcing_g_empmr_max    =   0.0000000000000E+00
(PID.TID 0000.0001) %MON g__extforcing_g_empmr_min    =   0.0000000000000E+00
(PID.TID 0000.0001) %MON g__extforcing_g_empmr_mean   =   0.0000000000000E+00
(PID.TID 0000.0001) %MON g__extforcing_g_empmr_sd     =   0.0000000000000E+00
(PID.TID 0000.0001) %MON g__extforcing_g_empmr_del2   =   0.0000000000000E+00
(PID.TID 0000.0001) %MON g__extforcing_g_fu_max       =   0.0000000000000E+00
(PID.TID 0000.0001) %MON g__extforcing_g_fu_min       =   0.0000000000000E+00
(PID.TID 0000.0001) %MON g__extforcing_g_fu_mean      =   0.0000000000000E+00
(PID.TID 0000.0001) %MON g__extforcing_g_fu_sd        =   0.0000000000000E+00
(PID.TID 0000.0001) %MON g__extforcing_g_fu_del2      =   0.0000000000000E+00
(PID.TID 0000.0001) %MON g__extforcing_g_fv_max       =   0.0000000000000E+00
(PID.TID 0000.0001) %MON g__extforcing_g_fv_min       =   0.0000000000000E+00
(PID.TID 0000.0001) %MON g__extforcing_g_fv_mean      =   0.0000000000000E+00
(PID.TID 0000.0001) %MON g__extforcing_g_fv_sd        =   0.0000000000000E+00
(PID.TID 0000.0001) %MON g__extforcing_g_fv_del2      =   0.0000000000000E+00
(PID.TID 0000.0001) %MON g__g_vcfl_g_uvel_max         =   2.2152204960970E-04
(PID.TID 0000.0001) %MON g__g_vcfl_g_vvel_max         =   3.8591146686226E-05
(PID.TID 0000.0001) %MON g__g_vcfl_g_wvel_max         =   2.5122435897784E-04
(PID.TID 0000.0001) %MON g__g_vcfl_g_W_hf_max         =   6.0293846154683E-04
(PID.TID 0000.0001) // =======================================================
(PID.TID 0000.0001) // End MONITOR dynamic field statistics
(PID.TID 0000.0001) // =======================================================
 cg2d: Sum(rhs),rhsMax =  -9.37752000384618E-13  1.32108998303892E-02
 cg2d: Sum(rhs),rhsMax =  -7.37328600952658E-13  8.55637530605071E+00
(PID.TID 0000.0001) // =======================================================
(PID.TID 0000.0001) // Begin MONITOR dynamic field statistics
(PID.TID 0000.0001) // =======================================================
(PID.TID 0000.0001) %MON g__time_tsnumber             =                    13
(PID.TID 0000.0001) %MON g__time_secondsf             =   5.6160000000000E+05
(PID.TID 0000.0001) %MON g__dynstat_g_eta_max         =   3.8923479124689E-03
(PID.TID 0000.0001) %MON g__dynstat_g_eta_min         =  -1.1323894373282E-04
(PID.TID 0000.0001) %MON g__dynstat_g_eta_mean        =   8.9008739048535E-19
(PID.TID 0000.0001) %MON g__dynstat_g_eta_sd          =   4.9272496695235E-05
(PID.TID 0000.0001) %MON g__dynstat_g_eta_del2        =   1.8595493593374E-06
(PID.TID 0000.0001) %MON g__dynstat_g_uvel_max        =   6.0336895137795E-04
(PID.TID 0000.0001) %MON g__dynstat_g_uvel_min        =  -1.2579129478230E-04
(PID.TID 0000.0001) %MON g__dynstat_g_uvel_mean       =   3.9526225562452E-08
(PID.TID 0000.0001) %MON g__dynstat_g_uvel_sd         =   1.1487363769319E-06
(PID.TID 0000.0001) %MON g__dynstat_g_uvel_del2       =   7.5154438214417E-08
(PID.TID 0000.0001) %MON g__dynstat_g_vvel_max        =   4.1219777884653E-04
(PID.TID 0000.0001) %MON g__dynstat_g_vvel_min        =  -1.0400593964242E-04
(PID.TID 0000.0001) %MON g__dynstat_g_vvel_mean       =  -3.8190699334456E-08
(PID.TID 0000.0001) %MON g__dynstat_g_vvel_sd         =   1.0287556602641E-06
(PID.TID 0000.0001) %MON g__dynstat_g_vvel_del2       =   4.4550120719617E-08
(PID.TID 0000.0001) %MON g__dynstat_g_wvel_max        =   3.4780134547156E-07
(PID.TID 0000.0001) %MON g__dynstat_g_wvel_min        =  -2.4363932556350E-07
(PID.TID 0000.0001) %MON g__dynstat_g_wvel_mean       =   3.7794820397476E-27
(PID.TID 0000.0001) %MON g__dynstat_g_wvel_sd         =   2.1102465966570E-09
(PID.TID 0000.0001) %MON g__dynstat_g_wvel_del2       =   1.8854421093266E-10
(PID.TID 0000.0001) %MON g__dynstat_g_theta_max       =   1.0623914557190E+00
(PID.TID 0000.0001) %MON g__dynstat_g_theta_min       =  -4.5223005792382E-05
(PID.TID 0000.0001) %MON g__dynstat_g_theta_mean      =   2.8799433994583E-06
(PID.TID 0000.0001) %MON g__dynstat_g_theta_sd        =   1.5467554618658E-03
(PID.TID 0000.0001) %MON g__dynstat_g_theta_del2      =   4.0276151102266E-05
(PID.TID 0000.0001) %MON g__dynstat_g_salt_max        =   2.3973381561869E-03
(PID.TID 0000.0001) %MON g__dynstat_g_salt_min        =  -1.6672747249646E-03
(PID.TID 0000.0001) %MON g__dynstat_g_salt_mean       =  -1.2321957509079E-10
(PID.TID 0000.0001) %MON g__dynstat_g_salt_sd         =   4.3968025459761E-06
(PID.TID 0000.0001) %MON g__dynstat_g_salt_del2       =   2.5460395442609E-07
(PID.TID 0000.0001) %MON g__dynstat_g_sst_max         =   1.0623914557190E+00
(PID.TID 0000.0001) %MON g__dynstat_g_sst_min         =  -4.5223005792382E-05
(PID.TID 0000.0001) %MON g__dynstat_g_sst_mean        =   1.7844715976824E-04
(PID.TID 0000.0001) %MON g__dynstat_g_sst_sd          =   1.3363527738127E-02
(PID.TID 0000.0001) %MON g__dynstat_g_sst_del2        =   4.4648614495545E-04
(PID.TID 0000.0001) %MON g__dynstat_g_sss_max         =   2.3973381561869E-03
(PID.TID 0000.0001) %MON g__dynstat_g_sss_min         =  -1.6672747249646E-03
(PID.TID 0000.0001) %MON g__dynstat_g_sss_mean        =   1.5540177621502E-07
(PID.TID 0000.0001) %MON g__dynstat_g_sss_sd          =   3.6845675306785E-05
(PID.TID 0000.0001) %MON g__dynstat_g_sss_del2        =   2.4643789250919E-06
(PID.TID 0000.0001) %MON g__extforcing_g_qnet_max     =   0.0000000000000E+00
(PID.TID 0000.0001) %MON g__extforcing_g_qnet_min     =   0.0000000000000E+00
(PID.TID 0000.0001) %MON g__extforcing_g_qnet_mean    =   0.0000000000000E+00
(PID.TID 0000.0001) %MON g__extforcing_g_qnet_sd      =   0.0000000000000E+00
(PID.TID 0000.0001) %MON g__extforcing_g_qnet_del2    =   0.0000000000000E+00
(PID.TID 0000.0001) %MON g__extforcing_g_empmr_max    =   0.0000000000000E+00
(PID.TID 0000.0001) %MON g__extforcing_g_empmr_min    =   0.0000000000000E+00
(PID.TID 0000.0001) %MON g__extforcing_g_empmr_mean   =   0.0000000000000E+00
(PID.TID 0000.0001) %MON g__extforcing_g_empmr_sd     =   0.0000000000000E+00
(PID.TID 0000.0001) %MON g__extforcing_g_empmr_del2   =   0.0000000000000E+00
(PID.TID 0000.0001) %MON g__extforcing_g_fu_max       =   0.0000000000000E+00
(PID.TID 0000.0001) %MON g__extforcing_g_fu_min       =   0.0000000000000E+00
(PID.TID 0000.0001) %MON g__extforcing_g_fu_mean      =   0.0000000000000E+00
(PID.TID 0000.0001) %MON g__extforcing_g_fu_sd        =   0.0000000000000E+00
(PID.TID 0000.0001) %MON g__extforcing_g_fu_del2      =   0.0000000000000E+00
(PID.TID 0000.0001) %MON g__extforcing_g_fv_max       =   0.0000000000000E+00
(PID.TID 0000.0001) %MON g__extforcing_g_fv_min       =   0.0000000000000E+00
(PID.TID 0000.0001) %MON g__extforcing_g_fv_mean      =   0.0000000000000E+00
(PID.TID 0000.0001) %MON g__extforcing_g_fv_sd        =   0.0000000000000E+00
(PID.TID 0000.0001) %MON g__extforcing_g_fv_del2      =   0.0000000000000E+00
(PID.TID 0000.0001) %MON g__g_vcfl_g_uvel_max         =   2.1264336619162E-04
(PID.TID 0000.0001) %MON g__g_vcfl_g_vvel_max         =   4.0041708786152E-05
(PID.TID 0000.0001) %MON g__g_vcfl_g_wvel_max         =   2.5041696873952E-04
(PID.TID 0000.0001) %MON g__g_vcfl_g_W_hf_max         =   6.0100072497485E-04
(PID.TID 0000.0001) // =======================================================
(PID.TID 0000.0001) // End MONITOR dynamic field statistics
(PID.TID 0000.0001) // =======================================================
 cg2d: Sum(rhs),rhsMax =  -1.03562261332807E-12  1.35336954317979E-02
 cg2d: Sum(rhs),rhsMax =  -8.18055692630715E-13  9.25214403713224E+00
(PID.TID 0000.0001) // =======================================================
(PID.TID 0000.0001) // Begin MONITOR dynamic field statistics
(PID.TID 0000.0001) // =======================================================
(PID.TID 0000.0001) %MON g__time_tsnumber             =                    14
(PID.TID 0000.0001) %MON g__time_secondsf             =   6.0480000000000E+05
(PID.TID 0000.0001) %MON g__dynstat_g_eta_max         =   3.9623980682010E-03
(PID.TID 0000.0001) %MON g__dynstat_g_eta_min         =  -9.1071149334379E-05
(PID.TID 0000.0001) %MON g__dynstat_g_eta_mean        =   8.9085198615277E-19
(PID.TID 0000.0001) %MON g__dynstat_g_eta_sd          =   5.0124727158552E-05
(PID.TID 0000.0001) %MON g__dynstat_g_eta_del2        =   1.9452246299196E-06
(PID.TID 0000.0001) %MON g__dynstat_g_uvel_max        =   5.7529883804498E-04
(PID.TID 0000.0001) %MON g__dynstat_g_uvel_min        =  -1.2821900714169E-04
(PID.TID 0000.0001) %MON g__dynstat_g_uvel_mean       =   4.3305597319595E-08
(PID.TID 0000.0001) %MON g__dynstat_g_uvel_sd         =   1.1014502274458E-06
(PID.TID 0000.0001) %MON g__dynstat_g_uvel_del2       =   7.3338723807740E-08
(PID.TID 0000.0001) %MON g__dynstat_g_vvel_max        =   4.2218924276285E-04
(PID.TID 0000.0001) %MON g__dynstat_g_vvel_min        =  -1.1370432896182E-04
(PID.TID 0000.0001) %MON g__dynstat_g_vvel_mean       =  -3.3390508124721E-08
(PID.TID 0000.0001) %MON g__dynstat_g_vvel_sd         =   1.0762978243920E-06
(PID.TID 0000.0001) %MON g__dynstat_g_vvel_del2       =   4.5166765230165E-08
(PID.TID 0000.0001) %MON g__dynstat_g_wvel_max        =   3.4631506946562E-07
(PID.TID 0000.0001) %MON g__dynstat_g_wvel_min        =  -2.1935865342968E-07
(PID.TID 0000.0001) %MON g__dynstat_g_wvel_mean       =  -1.3205394941293E-26
(PID.TID 0000.0001) %MON g__dynstat_g_wvel_sd         =   1.9647162915769E-09
(PID.TID 0000.0001) %MON g__dynstat_g_wvel_del2       =   1.8012210960723E-10
(PID.TID 0000.0001) %MON g__dynstat_g_theta_max       =   1.0817298739823E+00
(PID.TID 0000.0001) %MON g__dynstat_g_theta_min       =  -3.9511886391866E-05
(PID.TID 0000.0001) %MON g__dynstat_g_theta_mean      =   3.0298775313287E-06
(PID.TID 0000.0001) %MON g__dynstat_g_theta_sd        =   1.5811964708334E-03
(PID.TID 0000.0001) %MON g__dynstat_g_theta_del2      =   4.1622146880429E-05
(PID.TID 0000.0001) %MON g__dynstat_g_salt_max        =   2.6221509687373E-03
(PID.TID 0000.0001) %MON g__dynstat_g_salt_min        =  -1.8565960966119E-03
(PID.TID 0000.0001) %MON g__dynstat_g_salt_mean       =   5.1881923197490E-10
(PID.TID 0000.0001) %MON g__dynstat_g_salt_sd         =   4.8023459080993E-06
(PID.TID 0000.0001) %MON g__dynstat_g_salt_del2       =   2.7465001337585E-07
(PID.TID 0000.0001) %MON g__dynstat_g_sst_max         =   1.0817298739823E+00
(PID.TID 0000.0001) %MON g__dynstat_g_sst_min         =  -2.8316005941354E-05
(PID.TID 0000.0001) %MON g__dynstat_g_sst_mean        =   1.8276965034692E-04
(PID.TID 0000.0001) %MON g__dynstat_g_sst_sd          =   1.3609579728911E-02
(PID.TID 0000.0001) %MON g__dynstat_g_sst_del2        =   4.5337413993407E-04
(PID.TID 0000.0001) %MON g__dynstat_g_sss_max         =   2.6221509687373E-03
(PID.TID 0000.0001) %MON g__dynstat_g_sss_min         =  -1.8565960966119E-03
(PID.TID 0000.0001) %MON g__dynstat_g_sss_mean        =   1.7255736681936E-07
(PID.TID 0000.0001) %MON g__dynstat_g_sss_sd          =   4.0531332802395E-05
(PID.TID 0000.0001) %MON g__dynstat_g_sss_del2        =   2.7027082785681E-06
(PID.TID 0000.0001) %MON g__extforcing_g_qnet_max     =   0.0000000000000E+00
(PID.TID 0000.0001) %MON g__extforcing_g_qnet_min     =   0.0000000000000E+00
(PID.TID 0000.0001) %MON g__extforcing_g_qnet_mean    =   0.0000000000000E+00
(PID.TID 0000.0001) %MON g__extforcing_g_qnet_sd      =   0.0000000000000E+00
(PID.TID 0000.0001) %MON g__extforcing_g_qnet_del2    =   0.0000000000000E+00
(PID.TID 0000.0001) %MON g__extforcing_g_empmr_max    =   0.0000000000000E+00
(PID.TID 0000.0001) %MON g__extforcing_g_empmr_min    =   0.0000000000000E+00
(PID.TID 0000.0001) %MON g__extforcing_g_empmr_mean   =   0.0000000000000E+00
(PID.TID 0000.0001) %MON g__extforcing_g_empmr_sd     =   0.0000000000000E+00
(PID.TID 0000.0001) %MON g__extforcing_g_empmr_del2   =   0.0000000000000E+00
(PID.TID 0000.0001) %MON g__extforcing_g_fu_max       =   0.0000000000000E+00
(PID.TID 0000.0001) %MON g__extforcing_g_fu_min       =   0.0000000000000E+00
(PID.TID 0000.0001) %MON g__extforcing_g_fu_mean      =   0.0000000000000E+00
(PID.TID 0000.0001) %MON g__extforcing_g_fu_sd        =   0.0000000000000E+00
(PID.TID 0000.0001) %MON g__extforcing_g_fu_del2      =   0.0000000000000E+00
(PID.TID 0000.0001) %MON g__extforcing_g_fv_max       =   0.0000000000000E+00
(PID.TID 0000.0001) %MON g__extforcing_g_fv_min       =   0.0000000000000E+00
(PID.TID 0000.0001) %MON g__extforcing_g_fv_mean      =   0.0000000000000E+00
(PID.TID 0000.0001) %MON g__extforcing_g_fv_sd        =   0.0000000000000E+00
(PID.TID 0000.0001) %MON g__extforcing_g_fv_del2      =   0.0000000000000E+00
(PID.TID 0000.0001) %MON g__g_vcfl_g_uvel_max         =   2.0275070702367E-04
(PID.TID 0000.0001) %MON g__g_vcfl_g_vvel_max         =   4.1012299383715E-05
(PID.TID 0000.0001) %MON g__g_vcfl_g_wvel_max         =   2.4934685001525E-04
(PID.TID 0000.0001) %MON g__g_vcfl_g_W_hf_max         =   5.9843244003660E-04
(PID.TID 0000.0001) // =======================================================
(PID.TID 0000.0001) // End MONITOR dynamic field statistics
(PID.TID 0000.0001) // =======================================================
 cg2d: Sum(rhs),rhsMax =  -1.01052104557862E-12  1.38737167812553E-02
 cg2d: Sum(rhs),rhsMax =  -9.67533345108684E-13  9.75412758742915E+00
(PID.TID 0000.0001) // =======================================================
(PID.TID 0000.0001) // Begin MONITOR dynamic field statistics
(PID.TID 0000.0001) // =======================================================
(PID.TID 0000.0001) %MON g__time_tsnumber             =                    15
(PID.TID 0000.0001) %MON g__time_secondsf             =   6.4800000000000E+05
(PID.TID 0000.0001) %MON g__dynstat_g_eta_max         =   4.0441244875107E-03
(PID.TID 0000.0001) %MON g__dynstat_g_eta_min         =  -1.5704441620133E-04
(PID.TID 0000.0001) %MON g__dynstat_g_eta_mean        =   8.5164567093456E-19
(PID.TID 0000.0001) %MON g__dynstat_g_eta_sd          =   5.1173830018626E-05
(PID.TID 0000.0001) %MON g__dynstat_g_eta_del2        =   2.0388717176429E-06
(PID.TID 0000.0001) %MON g__dynstat_g_uvel_max        =   5.4429498353491E-04
(PID.TID 0000.0001) %MON g__dynstat_g_uvel_min        =  -1.3008785555848E-04
(PID.TID 0000.0001) %MON g__dynstat_g_uvel_mean       =   4.5205039097429E-08
(PID.TID 0000.0001) %MON g__dynstat_g_uvel_sd         =   1.0432939546436E-06
(PID.TID 0000.0001) %MON g__dynstat_g_uvel_del2       =   6.9758072181877E-08
(PID.TID 0000.0001) %MON g__dynstat_g_vvel_max        =   4.2846450477914E-04
(PID.TID 0000.0001) %MON g__dynstat_g_vvel_min        =  -1.2586473522173E-04
(PID.TID 0000.0001) %MON g__dynstat_g_vvel_mean       =  -2.8684033164388E-08
(PID.TID 0000.0001) %MON g__dynstat_g_vvel_sd         =   1.1245950194887E-06
(PID.TID 0000.0001) %MON g__dynstat_g_vvel_del2       =   4.6159222213054E-08
(PID.TID 0000.0001) %MON g__dynstat_g_wvel_max        =   3.4418735423446E-07
(PID.TID 0000.0001) %MON g__dynstat_g_wvel_min        =  -1.8707848351155E-07
(PID.TID 0000.0001) %MON g__dynstat_g_wvel_mean       =   5.6715039344192E-27
(PID.TID 0000.0001) %MON g__dynstat_g_wvel_sd         =   1.7370395012727E-09
(PID.TID 0000.0001) %MON g__dynstat_g_wvel_del2       =   1.6408496474330E-10
(PID.TID 0000.0001) %MON g__dynstat_g_theta_max       =   1.0976233798793E+00
(PID.TID 0000.0001) %MON g__dynstat_g_theta_min       =  -5.1719218760709E-05
(PID.TID 0000.0001) %MON g__dynstat_g_theta_mean      =   3.1650350098827E-06
(PID.TID 0000.0001) %MON g__dynstat_g_theta_sd        =   1.6108392904319E-03
(PID.TID 0000.0001) %MON g__dynstat_g_theta_del2      =   4.2792628527713E-05
(PID.TID 0000.0001) %MON g__dynstat_g_salt_max        =   2.8386282936507E-03
(PID.TID 0000.0001) %MON g__dynstat_g_salt_min        =  -2.0446023044384E-03
(PID.TID 0000.0001) %MON g__dynstat_g_salt_mean       =   1.1357002566921E-09
(PID.TID 0000.0001) %MON g__dynstat_g_salt_sd         =   5.2000848978985E-06
(PID.TID 0000.0001) %MON g__dynstat_g_salt_del2       =   2.9368987840181E-07
(PID.TID 0000.0001) %MON g__dynstat_g_sst_max         =   1.0976233798793E+00
(PID.TID 0000.0001) %MON g__dynstat_g_sst_min         =  -3.0513037955811E-05
(PID.TID 0000.0001) %MON g__dynstat_g_sst_mean        =   1.8644282366403E-04
(PID.TID 0000.0001) %MON g__dynstat_g_sst_sd          =   1.3812446746704E-02
(PID.TID 0000.0001) %MON g__dynstat_g_sst_del2        =   4.5888575679378E-04
(PID.TID 0000.0001) %MON g__dynstat_g_sss_max         =   2.8386282936507E-03
(PID.TID 0000.0001) %MON g__dynstat_g_sss_min         =  -2.0446023044384E-03
(PID.TID 0000.0001) %MON g__dynstat_g_sss_mean        =   1.8618998955355E-07
(PID.TID 0000.0001) %MON g__dynstat_g_sss_sd          =   4.4124475505302E-05
(PID.TID 0000.0001) %MON g__dynstat_g_sss_del2        =   2.9308398783179E-06
(PID.TID 0000.0001) %MON g__extforcing_g_qnet_max     =   0.0000000000000E+00
(PID.TID 0000.0001) %MON g__extforcing_g_qnet_min     =   0.0000000000000E+00
(PID.TID 0000.0001) %MON g__extforcing_g_qnet_mean    =   0.0000000000000E+00
(PID.TID 0000.0001) %MON g__extforcing_g_qnet_sd      =   0.0000000000000E+00
(PID.TID 0000.0001) %MON g__extforcing_g_qnet_del2    =   0.0000000000000E+00
(PID.TID 0000.0001) %MON g__extforcing_g_empmr_max    =   0.0000000000000E+00
(PID.TID 0000.0001) %MON g__extforcing_g_empmr_min    =   0.0000000000000E+00
(PID.TID 0000.0001) %MON g__extforcing_g_empmr_mean   =   0.0000000000000E+00
(PID.TID 0000.0001) %MON g__extforcing_g_empmr_sd     =   0.0000000000000E+00
(PID.TID 0000.0001) %MON g__extforcing_g_empmr_del2   =   0.0000000000000E+00
(PID.TID 0000.0001) %MON g__extforcing_g_fu_max       =   0.0000000000000E+00
(PID.TID 0000.0001) %MON g__extforcing_g_fu_min       =   0.0000000000000E+00
(PID.TID 0000.0001) %MON g__extforcing_g_fu_mean      =   0.0000000000000E+00
(PID.TID 0000.0001) %MON g__extforcing_g_fu_sd        =   0.0000000000000E+00
(PID.TID 0000.0001) %MON g__extforcing_g_fu_del2      =   0.0000000000000E+00
(PID.TID 0000.0001) %MON g__extforcing_g_fv_max       =   0.0000000000000E+00
(PID.TID 0000.0001) %MON g__extforcing_g_fv_min       =   0.0000000000000E+00
(PID.TID 0000.0001) %MON g__extforcing_g_fv_mean      =   0.0000000000000E+00
(PID.TID 0000.0001) %MON g__extforcing_g_fv_sd        =   0.0000000000000E+00
(PID.TID 0000.0001) %MON g__extforcing_g_fv_del2      =   0.0000000000000E+00
(PID.TID 0000.0001) %MON g__g_vcfl_g_uvel_max         =   1.9182411895035E-04
(PID.TID 0000.0001) %MON g__g_vcfl_g_vvel_max         =   4.1621890767046E-05
(PID.TID 0000.0001) %MON g__g_vcfl_g_wvel_max         =   2.4781489504881E-04
(PID.TID 0000.0001) %MON g__g_vcfl_g_W_hf_max         =   5.9475574811715E-04
(PID.TID 0000.0001) // =======================================================
(PID.TID 0000.0001) // End MONITOR dynamic field statistics
(PID.TID 0000.0001) // =======================================================
 cg2d: Sum(rhs),rhsMax =  -9.41458845120309E-13  1.42192344145062E-02
 cg2d: Sum(rhs),rhsMax =  -9.21351536731230E-13  1.00472791850534E+01
(PID.TID 0000.0001) // =======================================================
(PID.TID 0000.0001) // Begin MONITOR dynamic field statistics
(PID.TID 0000.0001) // =======================================================
(PID.TID 0000.0001) %MON g__time_tsnumber             =                    16
(PID.TID 0000.0001) %MON g__time_secondsf             =   6.9120000000000E+05
(PID.TID 0000.0001) %MON g__dynstat_g_eta_max         =   4.1360607790453E-03
(PID.TID 0000.0001) %MON g__dynstat_g_eta_min         =  -2.0282945217712E-04
(PID.TID 0000.0001) %MON g__dynstat_g_eta_mean        =   6.9688852854448E-19
(PID.TID 0000.0001) %MON g__dynstat_g_eta_sd          =   5.2345295324228E-05
(PID.TID 0000.0001) %MON g__dynstat_g_eta_del2        =   2.1071428450895E-06
(PID.TID 0000.0001) %MON g__dynstat_g_uvel_max        =   5.0988635832791E-04
(PID.TID 0000.0001) %MON g__dynstat_g_uvel_min        =  -1.3064894846196E-04
(PID.TID 0000.0001) %MON g__dynstat_g_uvel_mean       =   4.5503933869884E-08
(PID.TID 0000.0001) %MON g__dynstat_g_uvel_sd         =   9.7980775501896E-07
(PID.TID 0000.0001) %MON g__dynstat_g_uvel_del2       =   6.4486748418114E-08
(PID.TID 0000.0001) %MON g__dynstat_g_vvel_max        =   4.3228823827984E-04
(PID.TID 0000.0001) %MON g__dynstat_g_vvel_min        =  -1.3883701484268E-04
(PID.TID 0000.0001) %MON g__dynstat_g_vvel_mean       =  -2.4482175482642E-08
(PID.TID 0000.0001) %MON g__dynstat_g_vvel_sd         =   1.1735540944271E-06
(PID.TID 0000.0001) %MON g__dynstat_g_vvel_del2       =   4.8331096272525E-08
(PID.TID 0000.0001) %MON g__dynstat_g_wvel_max        =   3.3913947945657E-07
(PID.TID 0000.0001) %MON g__dynstat_g_wvel_min        =  -1.5596297284595E-07
(PID.TID 0000.0001) %MON g__dynstat_g_wvel_mean       =   5.1245497456533E-27
(PID.TID 0000.0001) %MON g__dynstat_g_wvel_sd         =   1.5087582055494E-09
(PID.TID 0000.0001) %MON g__dynstat_g_wvel_del2       =   1.4794901059494E-10
(PID.TID 0000.0001) %MON g__dynstat_g_theta_max       =   1.1078511097956E+00
(PID.TID 0000.0001) %MON g__dynstat_g_theta_min       =  -5.9763264433950E-05
(PID.TID 0000.0001) %MON g__dynstat_g_theta_mean      =   3.2721811552677E-06
(PID.TID 0000.0001) %MON g__dynstat_g_theta_sd        =   1.6317024633548E-03
(PID.TID 0000.0001) %MON g__dynstat_g_theta_del2      =   4.3654387714386E-05
(PID.TID 0000.0001) %MON g__dynstat_g_salt_max        =   3.0384765828385E-03
(PID.TID 0000.0001) %MON g__dynstat_g_salt_min        =  -2.2223505804728E-03
(PID.TID 0000.0001) %MON g__dynstat_g_salt_mean       =   1.6952263171991E-09
(PID.TID 0000.0001) %MON g__dynstat_g_salt_sd         =   5.5764246204910E-06
(PID.TID 0000.0001) %MON g__dynstat_g_salt_del2       =   3.1199488894094E-07
(PID.TID 0000.0001) %MON g__dynstat_g_sst_max         =   1.1078511097956E+00
(PID.TID 0000.0001) %MON g__dynstat_g_sst_min         =  -3.2097273361610E-05
(PID.TID 0000.0001) %MON g__dynstat_g_sst_mean        =   1.8902978329922E-04
(PID.TID 0000.0001) %MON g__dynstat_g_sst_sd          =   1.3943937232793E-02
(PID.TID 0000.0001) %MON g__dynstat_g_sst_del2        =   4.6216917139096E-04
(PID.TID 0000.0001) %MON g__dynstat_g_sss_max         =   3.0384765828385E-03
(PID.TID 0000.0001) %MON g__dynstat_g_sss_min         =  -2.2223505804728E-03
(PID.TID 0000.0001) %MON g__dynstat_g_sss_mean        =   1.9628905541617E-07
(PID.TID 0000.0001) %MON g__dynstat_g_sss_sd          =   4.7475643573041E-05
(PID.TID 0000.0001) %MON g__dynstat_g_sss_del2        =   3.1420360154055E-06
(PID.TID 0000.0001) %MON g__extforcing_g_qnet_max     =   0.0000000000000E+00
(PID.TID 0000.0001) %MON g__extforcing_g_qnet_min     =   0.0000000000000E+00
(PID.TID 0000.0001) %MON g__extforcing_g_qnet_mean    =   0.0000000000000E+00
(PID.TID 0000.0001) %MON g__extforcing_g_qnet_sd      =   0.0000000000000E+00
(PID.TID 0000.0001) %MON g__extforcing_g_qnet_del2    =   0.0000000000000E+00
(PID.TID 0000.0001) %MON g__extforcing_g_empmr_max    =   0.0000000000000E+00
(PID.TID 0000.0001) %MON g__extforcing_g_empmr_min    =   0.0000000000000E+00
(PID.TID 0000.0001) %MON g__extforcing_g_empmr_mean   =   0.0000000000000E+00
(PID.TID 0000.0001) %MON g__extforcing_g_empmr_sd     =   0.0000000000000E+00
(PID.TID 0000.0001) %MON g__extforcing_g_empmr_del2   =   0.0000000000000E+00
(PID.TID 0000.0001) %MON g__extforcing_g_fu_max       =   0.0000000000000E+00
(PID.TID 0000.0001) %MON g__extforcing_g_fu_min       =   0.0000000000000E+00
(PID.TID 0000.0001) %MON g__extforcing_g_fu_mean      =   0.0000000000000E+00
(PID.TID 0000.0001) %MON g__extforcing_g_fu_sd        =   0.0000000000000E+00
(PID.TID 0000.0001) %MON g__extforcing_g_fu_del2      =   0.0000000000000E+00
(PID.TID 0000.0001) %MON g__extforcing_g_fv_max       =   0.0000000000000E+00
(PID.TID 0000.0001) %MON g__extforcing_g_fv_min       =   0.0000000000000E+00
(PID.TID 0000.0001) %MON g__extforcing_g_fv_mean      =   0.0000000000000E+00
(PID.TID 0000.0001) %MON g__extforcing_g_fv_sd        =   0.0000000000000E+00
(PID.TID 0000.0001) %MON g__extforcing_g_fv_del2      =   0.0000000000000E+00
(PID.TID 0000.0001) %MON g__g_vcfl_g_uvel_max         =   1.7969759856290E-04
(PID.TID 0000.0001) %MON g__g_vcfl_g_vvel_max         =   4.1993335813982E-05
(PID.TID 0000.0001) %MON g__g_vcfl_g_wvel_max         =   2.4418042520873E-04
(PID.TID 0000.0001) %MON g__g_vcfl_g_W_hf_max         =   5.8603302050095E-04
(PID.TID 0000.0001) // =======================================================
(PID.TID 0000.0001) // End MONITOR dynamic field statistics
(PID.TID 0000.0001) // =======================================================
 cg2d: Sum(rhs),rhsMax =  -7.55597596547231E-13  1.45456138193911E-02
 cg2d: Sum(rhs),rhsMax =  -9.52874931736680E-13  1.01282964952821E+01
(PID.TID 0000.0001) // =======================================================
(PID.TID 0000.0001) // Begin MONITOR dynamic field statistics
(PID.TID 0000.0001) // =======================================================
(PID.TID 0000.0001) %MON g__time_tsnumber             =                    17
(PID.TID 0000.0001) %MON g__time_secondsf             =   7.3440000000000E+05
(PID.TID 0000.0001) %MON g__dynstat_g_eta_max         =   4.2321373246503E-03
(PID.TID 0000.0001) %MON g__dynstat_g_eta_min         =  -2.1548686435861E-04
(PID.TID 0000.0001) %MON g__dynstat_g_eta_mean        =   4.8594641333314E-19
(PID.TID 0000.0001) %MON g__dynstat_g_eta_sd          =   5.3530588142772E-05
(PID.TID 0000.0001) %MON g__dynstat_g_eta_del2        =   2.1560833671672E-06
(PID.TID 0000.0001) %MON g__dynstat_g_uvel_max        =   4.7112268664240E-04
(PID.TID 0000.0001) %MON g__dynstat_g_uvel_min        =  -1.2832681952135E-04
(PID.TID 0000.0001) %MON g__dynstat_g_uvel_mean       =   4.4623308996194E-08
(PID.TID 0000.0001) %MON g__dynstat_g_uvel_sd         =   9.1300814208338E-07
(PID.TID 0000.0001) %MON g__dynstat_g_uvel_del2       =   5.9119715526412E-08
(PID.TID 0000.0001) %MON g__dynstat_g_vvel_max        =   4.3476162077795E-04
(PID.TID 0000.0001) %MON g__dynstat_g_vvel_min        =  -1.5064840669793E-04
(PID.TID 0000.0001) %MON g__dynstat_g_vvel_mean       =  -2.1028980131668E-08
(PID.TID 0000.0001) %MON g__dynstat_g_vvel_sd         =   1.2212563153443E-06
(PID.TID 0000.0001) %MON g__dynstat_g_vvel_del2       =   5.0935448081753E-08
(PID.TID 0000.0001) %MON g__dynstat_g_wvel_max        =   3.3539204665154E-07
(PID.TID 0000.0001) %MON g__dynstat_g_wvel_min        =  -1.2639537572142E-07
(PID.TID 0000.0001) %MON g__dynstat_g_wvel_mean       =  -5.6550178098233E-27
(PID.TID 0000.0001) %MON g__dynstat_g_wvel_sd         =   1.3405174609823E-09
(PID.TID 0000.0001) %MON g__dynstat_g_wvel_del2       =   1.3633967641671E-10
(PID.TID 0000.0001) %MON g__dynstat_g_theta_max       =   1.1105341361610E+00
(PID.TID 0000.0001) %MON g__dynstat_g_theta_min       =  -6.3435610706363E-05
(PID.TID 0000.0001) %MON g__dynstat_g_theta_mean      =   3.3394487577758E-06
(PID.TID 0000.0001) %MON g__dynstat_g_theta_sd        =   1.6402503635358E-03
(PID.TID 0000.0001) %MON g__dynstat_g_theta_del2      =   4.4090933991781E-05
(PID.TID 0000.0001) %MON g__dynstat_g_salt_max        =   3.2148857692215E-03
(PID.TID 0000.0001) %MON g__dynstat_g_salt_min        =  -2.3802449739965E-03
(PID.TID 0000.0001) %MON g__dynstat_g_salt_mean       =   2.1742043590851E-09
(PID.TID 0000.0001) %MON g__dynstat_g_salt_sd         =   5.9163874076804E-06
(PID.TID 0000.0001) %MON g__dynstat_g_salt_del2       =   3.2955810939418E-07
(PID.TID 0000.0001) %MON g__dynstat_g_sst_max         =   1.1105341361610E+00
(PID.TID 0000.0001) %MON g__dynstat_g_sst_min         =  -2.8067715573077E-05
(PID.TID 0000.0001) %MON g__dynstat_g_sst_mean        =   1.9015468228899E-04
(PID.TID 0000.0001) %MON g__dynstat_g_sst_sd          =   1.3980123889228E-02
(PID.TID 0000.0001) %MON g__dynstat_g_sst_del2        =   4.6251360157024E-04
(PID.TID 0000.0001) %MON g__dynstat_g_sss_max         =   3.2148857692215E-03
(PID.TID 0000.0001) %MON g__dynstat_g_sss_min         =  -2.3802449739965E-03
(PID.TID 0000.0001) %MON g__dynstat_g_sss_mean        =   2.0317078097251E-07
(PID.TID 0000.0001) %MON g__dynstat_g_sss_sd          =   5.0444337959757E-05
(PID.TID 0000.0001) %MON g__dynstat_g_sss_del2        =   3.3288417429501E-06
(PID.TID 0000.0001) %MON g__extforcing_g_qnet_max     =   0.0000000000000E+00
(PID.TID 0000.0001) %MON g__extforcing_g_qnet_min     =   0.0000000000000E+00
(PID.TID 0000.0001) %MON g__extforcing_g_qnet_mean    =   0.0000000000000E+00
(PID.TID 0000.0001) %MON g__extforcing_g_qnet_sd      =   0.0000000000000E+00
(PID.TID 0000.0001) %MON g__extforcing_g_qnet_del2    =   0.0000000000000E+00
(PID.TID 0000.0001) %MON g__extforcing_g_empmr_max    =   0.0000000000000E+00
(PID.TID 0000.0001) %MON g__extforcing_g_empmr_min    =   0.0000000000000E+00
(PID.TID 0000.0001) %MON g__extforcing_g_empmr_mean   =   0.0000000000000E+00
(PID.TID 0000.0001) %MON g__extforcing_g_empmr_sd     =   0.0000000000000E+00
(PID.TID 0000.0001) %MON g__extforcing_g_empmr_del2   =   0.0000000000000E+00
(PID.TID 0000.0001) %MON g__extforcing_g_fu_max       =   0.0000000000000E+00
(PID.TID 0000.0001) %MON g__extforcing_g_fu_min       =   0.0000000000000E+00
(PID.TID 0000.0001) %MON g__extforcing_g_fu_mean      =   0.0000000000000E+00
(PID.TID 0000.0001) %MON g__extforcing_g_fu_sd        =   0.0000000000000E+00
(PID.TID 0000.0001) %MON g__extforcing_g_fu_del2      =   0.0000000000000E+00
(PID.TID 0000.0001) %MON g__extforcing_g_fv_max       =   0.0000000000000E+00
(PID.TID 0000.0001) %MON g__extforcing_g_fv_min       =   0.0000000000000E+00
(PID.TID 0000.0001) %MON g__extforcing_g_fv_mean      =   0.0000000000000E+00
(PID.TID 0000.0001) %MON g__extforcing_g_fv_sd        =   0.0000000000000E+00
(PID.TID 0000.0001) %MON g__extforcing_g_fv_del2      =   0.0000000000000E+00
(PID.TID 0000.0001) %MON g__g_vcfl_g_uvel_max         =   1.6603624324402E-04
(PID.TID 0000.0001) %MON g__g_vcfl_g_vvel_max         =   4.2233605089531E-05
(PID.TID 0000.0001) %MON g__g_vcfl_g_wvel_max         =   2.3550231974898E-04
(PID.TID 0000.0001) %MON g__g_vcfl_g_W_hf_max         =   5.6520556739755E-04
(PID.TID 0000.0001) // =======================================================
(PID.TID 0000.0001) // End MONITOR dynamic field statistics
(PID.TID 0000.0001) // =======================================================
 cg2d: Sum(rhs),rhsMax =  -5.16939365715893E-13  1.48165123155215E-02
 cg2d: Sum(rhs),rhsMax =  -7.74356273547383E-13  1.00066236471320E+01
(PID.TID 0000.0001) // =======================================================
(PID.TID 0000.0001) // Begin MONITOR dynamic field statistics
(PID.TID 0000.0001) // =======================================================
(PID.TID 0000.0001) %MON g__time_tsnumber             =                    18
(PID.TID 0000.0001) %MON g__time_secondsf             =   7.7760000000000E+05
(PID.TID 0000.0001) %MON g__dynstat_g_eta_max         =   4.3217204958106E-03
(PID.TID 0000.0001) %MON g__dynstat_g_eta_min         =  -1.9588031586129E-04
(PID.TID 0000.0001) %MON g__dynstat_g_eta_mean        =   2.2636266940318E-19
(PID.TID 0000.0001) %MON g__dynstat_g_eta_sd          =   5.4597460548913E-05
(PID.TID 0000.0001) %MON g__dynstat_g_eta_del2        =   2.1680541049670E-06
(PID.TID 0000.0001) %MON g__dynstat_g_uvel_max        =   4.2657538118600E-04
(PID.TID 0000.0001) %MON g__dynstat_g_uvel_min        =  -1.2136351721787E-04
(PID.TID 0000.0001) %MON g__dynstat_g_uvel_mean       =   4.3036045660954E-08
(PID.TID 0000.0001) %MON g__dynstat_g_uvel_sd         =   8.4102453794022E-07
(PID.TID 0000.0001) %MON g__dynstat_g_uvel_del2       =   5.4195579883266E-08
(PID.TID 0000.0001) %MON g__dynstat_g_vvel_max        =   4.3661721582153E-04
(PID.TID 0000.0001) %MON g__dynstat_g_vvel_min        =  -1.5933641553539E-04
(PID.TID 0000.0001) %MON g__dynstat_g_vvel_mean       =  -1.8408160748796E-08
(PID.TID 0000.0001) %MON g__dynstat_g_vvel_sd         =   1.2631867337276E-06
(PID.TID 0000.0001) %MON g__dynstat_g_vvel_del2       =   5.3735455636456E-08
(PID.TID 0000.0001) %MON g__dynstat_g_wvel_max        =   3.2529349801428E-07
(PID.TID 0000.0001) %MON g__dynstat_g_wvel_min        =  -9.3579375907894E-08
(PID.TID 0000.0001) %MON g__dynstat_g_wvel_mean       =  -1.2696843471244E-26
(PID.TID 0000.0001) %MON g__dynstat_g_wvel_sd         =   1.2445267676828E-09
(PID.TID 0000.0001) %MON g__dynstat_g_wvel_del2       =   1.3809362899993E-10
(PID.TID 0000.0001) %MON g__dynstat_g_theta_max       =   1.1045491347639E+00
(PID.TID 0000.0001) %MON g__dynstat_g_theta_min       =  -3.3392544906591E-05
(PID.TID 0000.0001) %MON g__dynstat_g_theta_mean      =   3.3591246386534E-06
(PID.TID 0000.0001) %MON g__dynstat_g_theta_sd        =   1.6342152641299E-03
(PID.TID 0000.0001) %MON g__dynstat_g_theta_del2      =   4.4031727847498E-05
(PID.TID 0000.0001) %MON g__dynstat_g_salt_max        =   3.3637873643181E-03
(PID.TID 0000.0001) %MON g__dynstat_g_salt_min        =  -2.5102295099924E-03
(PID.TID 0000.0001) %MON g__dynstat_g_salt_mean       =   2.5602635960509E-09
(PID.TID 0000.0001) %MON g__dynstat_g_salt_sd         =   6.2084302755453E-06
(PID.TID 0000.0001) %MON g__dynstat_g_salt_del2       =   3.4581165811996E-07
(PID.TID 0000.0001) %MON g__dynstat_g_sst_max         =   1.1045491347639E+00
(PID.TID 0000.0001) %MON g__dynstat_g_sst_min         =  -2.5911934607337E-05
(PID.TID 0000.0001) %MON g__dynstat_g_sst_mean        =   1.8958866080481E-04
(PID.TID 0000.0001) %MON g__dynstat_g_sst_sd          =   1.3906625657257E-02
(PID.TID 0000.0001) %MON g__dynstat_g_sst_del2        =   4.5949754509872E-04
(PID.TID 0000.0001) %MON g__dynstat_g_sss_max         =   3.3637873643181E-03
(PID.TID 0000.0001) %MON g__dynstat_g_sss_min         =  -2.5102295099924E-03
(PID.TID 0000.0001) %MON g__dynstat_g_sss_mean        =   2.0757808959903E-07
(PID.TID 0000.0001) %MON g__dynstat_g_sss_sd          =   5.2928186745584E-05
(PID.TID 0000.0001) %MON g__dynstat_g_sss_del2        =   3.4868890616895E-06
(PID.TID 0000.0001) %MON g__extforcing_g_qnet_max     =   0.0000000000000E+00
(PID.TID 0000.0001) %MON g__extforcing_g_qnet_min     =   0.0000000000000E+00
(PID.TID 0000.0001) %MON g__extforcing_g_qnet_mean    =   0.0000000000000E+00
(PID.TID 0000.0001) %MON g__extforcing_g_qnet_sd      =   0.0000000000000E+00
(PID.TID 0000.0001) %MON g__extforcing_g_qnet_del2    =   0.0000000000000E+00
(PID.TID 0000.0001) %MON g__extforcing_g_empmr_max    =   0.0000000000000E+00
(PID.TID 0000.0001) %MON g__extforcing_g_empmr_min    =   0.0000000000000E+00
(PID.TID 0000.0001) %MON g__extforcing_g_empmr_mean   =   0.0000000000000E+00
(PID.TID 0000.0001) %MON g__extforcing_g_empmr_sd     =   0.0000000000000E+00
(PID.TID 0000.0001) %MON g__extforcing_g_empmr_del2   =   0.0000000000000E+00
(PID.TID 0000.0001) %MON g__extforcing_g_fu_max       =   0.0000000000000E+00
(PID.TID 0000.0001) %MON g__extforcing_g_fu_min       =   0.0000000000000E+00
(PID.TID 0000.0001) %MON g__extforcing_g_fu_mean      =   0.0000000000000E+00
(PID.TID 0000.0001) %MON g__extforcing_g_fu_sd        =   0.0000000000000E+00
(PID.TID 0000.0001) %MON g__extforcing_g_fu_del2      =   0.0000000000000E+00
(PID.TID 0000.0001) %MON g__extforcing_g_fv_max       =   0.0000000000000E+00
(PID.TID 0000.0001) %MON g__extforcing_g_fv_min       =   0.0000000000000E+00
(PID.TID 0000.0001) %MON g__extforcing_g_fv_mean      =   0.0000000000000E+00
(PID.TID 0000.0001) %MON g__extforcing_g_fv_sd        =   0.0000000000000E+00
(PID.TID 0000.0001) %MON g__extforcing_g_fv_del2      =   0.0000000000000E+00
(PID.TID 0000.0001) %MON g__g_vcfl_g_uvel_max         =   1.5033658059916E-04
(PID.TID 0000.0001) %MON g__g_vcfl_g_vvel_max         =   4.2413861267931E-05
(PID.TID 0000.0001) %MON g__g_vcfl_g_wvel_max         =   2.1868902413081E-04
(PID.TID 0000.0001) %MON g__g_vcfl_g_W_hf_max         =   5.2485365791395E-04
(PID.TID 0000.0001) // =======================================================
(PID.TID 0000.0001) // End MONITOR dynamic field statistics
(PID.TID 0000.0001) // =======================================================
 cg2d: Sum(rhs),rhsMax =  -2.37416103027200E-13  1.49907703119328E-02
 cg2d: Sum(rhs),rhsMax =  -7.06018576934753E-13  9.70409645617043E+00
(PID.TID 0000.0001) // =======================================================
(PID.TID 0000.0001) // Begin MONITOR dynamic field statistics
(PID.TID 0000.0001) // =======================================================
(PID.TID 0000.0001) %MON g__time_tsnumber             =                    19
(PID.TID 0000.0001) %MON g__time_secondsf             =   8.2080000000000E+05
(PID.TID 0000.0001) %MON g__dynstat_g_eta_max         =   4.3914429260612E-03
(PID.TID 0000.0001) %MON g__dynstat_g_eta_min         =  -1.4895818549885E-04
(PID.TID 0000.0001) %MON g__dynstat_g_eta_mean        =  -6.3294013935703E-20
(PID.TID 0000.0001) %MON g__dynstat_g_eta_sd          =   5.5404820209241E-05
(PID.TID 0000.0001) %MON g__dynstat_g_eta_del2        =   2.1609196335784E-06
(PID.TID 0000.0001) %MON g__dynstat_g_uvel_max        =   3.7450774082248E-04
(PID.TID 0000.0001) %MON g__dynstat_g_uvel_min        =  -1.0843323401680E-04
(PID.TID 0000.0001) %MON g__dynstat_g_uvel_mean       =   4.1194239532193E-08
(PID.TID 0000.0001) %MON g__dynstat_g_uvel_sd         =   7.5998211397426E-07
(PID.TID 0000.0001) %MON g__dynstat_g_uvel_del2       =   5.0587710809505E-08
(PID.TID 0000.0001) %MON g__dynstat_g_vvel_max        =   4.3807558057238E-04
(PID.TID 0000.0001) %MON g__dynstat_g_vvel_min        =  -1.6331264358397E-04
(PID.TID 0000.0001) %MON g__dynstat_g_vvel_mean       =  -1.6568099081890E-08
(PID.TID 0000.0001) %MON g__dynstat_g_vvel_sd         =   1.2935595948026E-06
(PID.TID 0000.0001) %MON g__dynstat_g_vvel_del2       =   5.6100827843277E-08
(PID.TID 0000.0001) %MON g__dynstat_g_wvel_max        =   3.0108687209038E-07
(PID.TID 0000.0001) %MON g__dynstat_g_wvel_min        =  -5.9497774244747E-08
(PID.TID 0000.0001) %MON g__dynstat_g_wvel_mean       =  -4.8332711803122E-27
(PID.TID 0000.0001) %MON g__dynstat_g_wvel_sd         =   1.1852725679822E-09
(PID.TID 0000.0001) %MON g__dynstat_g_wvel_del2       =   1.3749461831713E-10
(PID.TID 0000.0001) %MON g__dynstat_g_theta_max       =   1.0898095912246E+00
(PID.TID 0000.0001) %MON g__dynstat_g_theta_min       =  -3.4255609784423E-05
(PID.TID 0000.0001) %MON g__dynstat_g_theta_mean      =   3.3297379187787E-06
(PID.TID 0000.0001) %MON g__dynstat_g_theta_sd        =   1.6132007524341E-03
(PID.TID 0000.0001) %MON g__dynstat_g_theta_del2      =   4.3468363069294E-05
(PID.TID 0000.0001) %MON g__dynstat_g_salt_max        =   3.4843886161452E-03
(PID.TID 0000.0001) %MON g__dynstat_g_salt_min        =  -2.6078863643693E-03
(PID.TID 0000.0001) %MON g__dynstat_g_salt_mean       =   2.8527208043259E-09
(PID.TID 0000.0001) %MON g__dynstat_g_salt_sd         =   6.4477693646711E-06
(PID.TID 0000.0001) %MON g__dynstat_g_salt_del2       =   3.6087946573472E-07
(PID.TID 0000.0001) %MON g__dynstat_g_sst_max         =   1.0898095912246E+00
(PID.TID 0000.0001) %MON g__dynstat_g_sst_min         =  -2.5227523762825E-05
(PID.TID 0000.0001) %MON g__dynstat_g_sst_mean        =   1.8730951273671E-04
(PID.TID 0000.0001) %MON g__dynstat_g_sst_sd          =   1.3722221842559E-02
(PID.TID 0000.0001) %MON g__dynstat_g_sst_del2        =   4.5309240065576E-04
(PID.TID 0000.0001) %MON g__dynstat_g_sss_max         =   3.4843886161452E-03
(PID.TID 0000.0001) %MON g__dynstat_g_sss_min         =  -2.6078863643693E-03
(PID.TID 0000.0001) %MON g__dynstat_g_sss_mean        =   2.1053531713871E-07
(PID.TID 0000.0001) %MON g__dynstat_g_sss_sd          =   5.4884882266770E-05
(PID.TID 0000.0001) %MON g__dynstat_g_sss_del2        =   3.6136027619364E-06
(PID.TID 0000.0001) %MON g__extforcing_g_qnet_max     =   0.0000000000000E+00
(PID.TID 0000.0001) %MON g__extforcing_g_qnet_min     =   0.0000000000000E+00
(PID.TID 0000.0001) %MON g__extforcing_g_qnet_mean    =   0.0000000000000E+00
(PID.TID 0000.0001) %MON g__extforcing_g_qnet_sd      =   0.0000000000000E+00
(PID.TID 0000.0001) %MON g__extforcing_g_qnet_del2    =   0.0000000000000E+00
(PID.TID 0000.0001) %MON g__extforcing_g_empmr_max    =   0.0000000000000E+00
(PID.TID 0000.0001) %MON g__extforcing_g_empmr_min    =   0.0000000000000E+00
(PID.TID 0000.0001) %MON g__extforcing_g_empmr_mean   =   0.0000000000000E+00
(PID.TID 0000.0001) %MON g__extforcing_g_empmr_sd     =   0.0000000000000E+00
(PID.TID 0000.0001) %MON g__extforcing_g_empmr_del2   =   0.0000000000000E+00
(PID.TID 0000.0001) %MON g__extforcing_g_fu_max       =   0.0000000000000E+00
(PID.TID 0000.0001) %MON g__extforcing_g_fu_min       =   0.0000000000000E+00
(PID.TID 0000.0001) %MON g__extforcing_g_fu_mean      =   0.0000000000000E+00
(PID.TID 0000.0001) %MON g__extforcing_g_fu_sd        =   0.0000000000000E+00
(PID.TID 0000.0001) %MON g__extforcing_g_fu_del2      =   0.0000000000000E+00
(PID.TID 0000.0001) %MON g__extforcing_g_fv_max       =   0.0000000000000E+00
(PID.TID 0000.0001) %MON g__extforcing_g_fv_min       =   0.0000000000000E+00
(PID.TID 0000.0001) %MON g__extforcing_g_fv_mean      =   0.0000000000000E+00
(PID.TID 0000.0001) %MON g__extforcing_g_fv_sd        =   0.0000000000000E+00
(PID.TID 0000.0001) %MON g__extforcing_g_fv_del2      =   0.0000000000000E+00
(PID.TID 0000.0001) %MON g__g_vcfl_g_uvel_max         =   1.3198655066927E-04
(PID.TID 0000.0001) %MON g__g_vcfl_g_vvel_max         =   4.2555529708797E-05
(PID.TID 0000.0001) %MON g__g_vcfl_g_wvel_max         =   1.9161016272830E-04
(PID.TID 0000.0001) %MON g__g_vcfl_g_W_hf_max         =   4.5986439054792E-04
(PID.TID 0000.0001) // =======================================================
(PID.TID 0000.0001) // End MONITOR dynamic field statistics
(PID.TID 0000.0001) // =======================================================
 cg2d: Sum(rhs),rhsMax =   6.49515864816137E-14  1.50323748250428E-02
 cg2d: Sum(rhs),rhsMax =  -1.26008925516174E-12  9.47667283578001E+00
(PID.TID 0000.0001) // =======================================================
(PID.TID 0000.0001) // Begin MONITOR dynamic field statistics
(PID.TID 0000.0001) // =======================================================
(PID.TID 0000.0001) %MON g__time_tsnumber             =                    20
(PID.TID 0000.0001) %MON g__time_secondsf             =   8.6400000000000E+05
(PID.TID 0000.0001) %MON g__dynstat_g_eta_max         =   4.4281995495515E-03
(PID.TID 0000.0001) %MON g__dynstat_g_eta_min         =  -8.1691871442007E-05
(PID.TID 0000.0001) %MON g__dynstat_g_eta_mean        =  -4.4886025764883E-19
(PID.TID 0000.0001) %MON g__dynstat_g_eta_sd          =   5.5823690515150E-05
(PID.TID 0000.0001) %MON g__dynstat_g_eta_del2        =   2.1365947974710E-06
(PID.TID 0000.0001) %MON g__dynstat_g_uvel_max        =   3.1323272223062E-04
(PID.TID 0000.0001) %MON g__dynstat_g_uvel_min        =  -9.3106998132477E-05
(PID.TID 0000.0001) %MON g__dynstat_g_uvel_mean       =   3.9470890206855E-08
(PID.TID 0000.0001) %MON g__dynstat_g_uvel_sd         =   6.6774710679255E-07
(PID.TID 0000.0001) %MON g__dynstat_g_uvel_del2       =   4.7567497495947E-08
(PID.TID 0000.0001) %MON g__dynstat_g_vvel_max        =   4.3880971590440E-04
(PID.TID 0000.0001) %MON g__dynstat_g_vvel_min        =  -1.6168510162388E-04
(PID.TID 0000.0001) %MON g__dynstat_g_vvel_mean       =  -1.5355106983122E-08
(PID.TID 0000.0001) %MON g__dynstat_g_vvel_sd         =   1.3074745374161E-06
(PID.TID 0000.0001) %MON g__dynstat_g_vvel_del2       =   5.7484618640085E-08
(PID.TID 0000.0001) %MON g__dynstat_g_wvel_max        =   2.6158681442829E-07
(PID.TID 0000.0001) %MON g__dynstat_g_wvel_min        =  -4.4487427919392E-08
(PID.TID 0000.0001) %MON g__dynstat_g_wvel_mean       =  -1.8970324697008E-28
(PID.TID 0000.0001) %MON g__dynstat_g_wvel_sd         =   1.1170404098996E-09
(PID.TID 0000.0001) %MON g__dynstat_g_wvel_del2       =   1.3194105242060E-10
(PID.TID 0000.0001) %MON g__dynstat_g_theta_max       =   1.0673243333482E+00
(PID.TID 0000.0001) %MON g__dynstat_g_theta_min       =  -3.5385629860962E-05
(PID.TID 0000.0001) %MON g__dynstat_g_theta_mean      =   3.2566322333582E-06
(PID.TID 0000.0001) %MON g__dynstat_g_theta_sd        =   1.5788477979635E-03
(PID.TID 0000.0001) %MON g__dynstat_g_theta_del2      =   4.2450301693957E-05
(PID.TID 0000.0001) %MON g__dynstat_g_salt_max        =   3.5790635172844E-03
(PID.TID 0000.0001) %MON g__dynstat_g_salt_min        =  -2.6737986259623E-03
(PID.TID 0000.0001) %MON g__dynstat_g_salt_mean       =   3.0607727537525E-09
(PID.TID 0000.0001) %MON g__dynstat_g_salt_sd         =   6.6369680438951E-06
(PID.TID 0000.0001) %MON g__dynstat_g_salt_del2       =   3.7447921478977E-07
(PID.TID 0000.0001) %MON g__dynstat_g_sst_max         =   1.0673243333482E+00
(PID.TID 0000.0001) %MON g__dynstat_g_sst_min         =  -2.0963272392169E-05
(PID.TID 0000.0001) %MON g__dynstat_g_sst_mean        =   1.8351243833548E-04
(PID.TID 0000.0001) %MON g__dynstat_g_sst_sd          =   1.3439626863921E-02
(PID.TID 0000.0001) %MON g__dynstat_g_sst_del2        =   4.4368401849221E-04
(PID.TID 0000.0001) %MON g__dynstat_g_sss_max         =   3.5790635172844E-03
(PID.TID 0000.0001) %MON g__dynstat_g_sss_min         =  -2.6737986259623E-03
(PID.TID 0000.0001) %MON g__dynstat_g_sss_mean        =   2.1287076801077E-07
(PID.TID 0000.0001) %MON g__dynstat_g_sss_sd          =   5.6342242119152E-05
(PID.TID 0000.0001) %MON g__dynstat_g_sss_del2        =   3.7116949367292E-06
(PID.TID 0000.0001) %MON g__extforcing_g_qnet_max     =   0.0000000000000E+00
(PID.TID 0000.0001) %MON g__extforcing_g_qnet_min     =   0.0000000000000E+00
(PID.TID 0000.0001) %MON g__extforcing_g_qnet_mean    =   0.0000000000000E+00
(PID.TID 0000.0001) %MON g__extforcing_g_qnet_sd      =   0.0000000000000E+00
(PID.TID 0000.0001) %MON g__extforcing_g_qnet_del2    =   0.0000000000000E+00
(PID.TID 0000.0001) %MON g__extforcing_g_empmr_max    =   0.0000000000000E+00
(PID.TID 0000.0001) %MON g__extforcing_g_empmr_min    =   0.0000000000000E+00
(PID.TID 0000.0001) %MON g__extforcing_g_empmr_mean   =   0.0000000000000E+00
(PID.TID 0000.0001) %MON g__extforcing_g_empmr_sd     =   0.0000000000000E+00
(PID.TID 0000.0001) %MON g__extforcing_g_empmr_del2   =   0.0000000000000E+00
(PID.TID 0000.0001) %MON g__extforcing_g_fu_max       =   0.0000000000000E+00
(PID.TID 0000.0001) %MON g__extforcing_g_fu_min       =   0.0000000000000E+00
(PID.TID 0000.0001) %MON g__extforcing_g_fu_mean      =   0.0000000000000E+00
(PID.TID 0000.0001) %MON g__extforcing_g_fu_sd        =   0.0000000000000E+00
(PID.TID 0000.0001) %MON g__extforcing_g_fu_del2      =   0.0000000000000E+00
(PID.TID 0000.0001) %MON g__extforcing_g_fv_max       =   0.0000000000000E+00
(PID.TID 0000.0001) %MON g__extforcing_g_fv_min       =   0.0000000000000E+00
(PID.TID 0000.0001) %MON g__extforcing_g_fv_mean      =   0.0000000000000E+00
(PID.TID 0000.0001) %MON g__extforcing_g_fv_sd        =   0.0000000000000E+00
(PID.TID 0000.0001) %MON g__extforcing_g_fv_del2      =   0.0000000000000E+00
(PID.TID 0000.0001) %MON g__g_vcfl_g_uvel_max         =   1.1039159423827E-04
(PID.TID 0000.0001) %MON g__g_vcfl_g_vvel_max         =   4.2626845069245E-05
(PID.TID 0000.0001) %MON g__g_vcfl_g_wvel_max         =   1.5389786646927E-04
(PID.TID 0000.0001) %MON g__g_vcfl_g_W_hf_max         =   3.6935487952626E-04
(PID.TID 0000.0001) // =======================================================
(PID.TID 0000.0001) // End MONITOR dynamic field statistics
(PID.TID 0000.0001) // =======================================================
 myIter=  20
(PID.TID 0000.0001) // Model state written, timestep        20
(PID.TID 0000.0001) 
 cg2d: Sum(rhs),rhsMax =   4.73210457653607E-13  1.49203219599915E-02
 cg2d: Sum(rhs),rhsMax =  -1.23858562295354E-12  1.03748401635909E+01
(PID.TID 0000.0001) // =======================================================
(PID.TID 0000.0001) // Begin MONITOR dynamic field statistics
(PID.TID 0000.0001) // =======================================================
(PID.TID 0000.0001) %MON g__time_tsnumber             =                    21
(PID.TID 0000.0001) %MON g__time_secondsf             =   9.0720000000000E+05
(PID.TID 0000.0001) %MON g__dynstat_g_eta_max         =   4.4223909405909E-03
(PID.TID 0000.0001) %MON g__dynstat_g_eta_min         =  -4.8221071250168E-05
(PID.TID 0000.0001) %MON g__dynstat_g_eta_mean        =  -5.7027645664049E-19
(PID.TID 0000.0001) %MON g__dynstat_g_eta_sd          =   5.5760833599093E-05
(PID.TID 0000.0001) %MON g__dynstat_g_eta_del2        =   2.1107925778222E-06
(PID.TID 0000.0001) %MON g__dynstat_g_uvel_max        =   2.4160158126050E-04
(PID.TID 0000.0001) %MON g__dynstat_g_uvel_min        =  -9.2120438422819E-05
(PID.TID 0000.0001) %MON g__dynstat_g_uvel_mean       =   3.8128789970445E-08
(PID.TID 0000.0001) %MON g__dynstat_g_uvel_sd         =   5.6868811617495E-07
(PID.TID 0000.0001) %MON g__dynstat_g_uvel_del2       =   4.5029066737754E-08
(PID.TID 0000.0001) %MON g__dynstat_g_vvel_max        =   4.3825037608769E-04
(PID.TID 0000.0001) %MON g__dynstat_g_vvel_min        =  -1.5536577214099E-04
(PID.TID 0000.0001) %MON g__dynstat_g_vvel_mean       =  -1.4550644773257E-08
(PID.TID 0000.0001) %MON g__dynstat_g_vvel_sd         =   1.3026224289713E-06
(PID.TID 0000.0001) %MON g__dynstat_g_vvel_del2       =   5.7728784672936E-08
(PID.TID 0000.0001) %MON g__dynstat_g_wvel_max        =   2.0818319659791E-07
(PID.TID 0000.0001) %MON g__dynstat_g_wvel_min        =  -4.2149223635959E-08
(PID.TID 0000.0001) %MON g__dynstat_g_wvel_mean       =  -1.5642125751537E-27
(PID.TID 0000.0001) %MON g__dynstat_g_wvel_sd         =   1.0145280508603E-09
(PID.TID 0000.0001) %MON g__dynstat_g_wvel_del2       =   1.2283806477563E-10
(PID.TID 0000.0001) %MON g__dynstat_g_theta_max       =   1.0390192112243E+00
(PID.TID 0000.0001) %MON g__dynstat_g_theta_min       =  -4.7053383228166E-05
(PID.TID 0000.0001) %MON g__dynstat_g_theta_mean      =   3.1507909315496E-06
(PID.TID 0000.0001) %MON g__dynstat_g_theta_sd        =   1.5345044419625E-03
(PID.TID 0000.0001) %MON g__dynstat_g_theta_del2      =   4.1090093833394E-05
(PID.TID 0000.0001) %MON g__dynstat_g_salt_max        =   3.6527544616017E-03
(PID.TID 0000.0001) %MON g__dynstat_g_salt_min        =  -2.7136785389993E-03
(PID.TID 0000.0001) %MON g__dynstat_g_salt_mean       =   3.1997659783968E-09
(PID.TID 0000.0001) %MON g__dynstat_g_salt_sd         =   6.7851228131574E-06
(PID.TID 0000.0001) %MON g__dynstat_g_salt_del2       =   3.8724856782738E-07
(PID.TID 0000.0001) %MON g__dynstat_g_sst_max         =   1.0390192112243E+00
(PID.TID 0000.0001) %MON g__dynstat_g_sst_min         =  -1.8427526738228E-05
(PID.TID 0000.0001) %MON g__dynstat_g_sst_mean        =   1.7857535377601E-04
(PID.TID 0000.0001) %MON g__dynstat_g_sst_sd          =   1.3083229830978E-02
(PID.TID 0000.0001) %MON g__dynstat_g_sst_del2        =   4.3202495244409E-04
(PID.TID 0000.0001) %MON g__dynstat_g_sss_max         =   3.6527544616017E-03
(PID.TID 0000.0001) %MON g__dynstat_g_sss_min         =  -2.7136785389993E-03
(PID.TID 0000.0001) %MON g__dynstat_g_sss_mean        =   2.1522241694322E-07
(PID.TID 0000.0001) %MON g__dynstat_g_sss_sd          =   5.7393380773515E-05
(PID.TID 0000.0001) %MON g__dynstat_g_sss_del2        =   3.7873567473126E-06
(PID.TID 0000.0001) %MON g__extforcing_g_qnet_max     =   0.0000000000000E+00
(PID.TID 0000.0001) %MON g__extforcing_g_qnet_min     =   0.0000000000000E+00
(PID.TID 0000.0001) %MON g__extforcing_g_qnet_mean    =   0.0000000000000E+00
(PID.TID 0000.0001) %MON g__extforcing_g_qnet_sd      =   0.0000000000000E+00
(PID.TID 0000.0001) %MON g__extforcing_g_qnet_del2    =   0.0000000000000E+00
(PID.TID 0000.0001) %MON g__extforcing_g_empmr_max    =   0.0000000000000E+00
(PID.TID 0000.0001) %MON g__extforcing_g_empmr_min    =   0.0000000000000E+00
(PID.TID 0000.0001) %MON g__extforcing_g_empmr_mean   =   0.0000000000000E+00
(PID.TID 0000.0001) %MON g__extforcing_g_empmr_sd     =   0.0000000000000E+00
(PID.TID 0000.0001) %MON g__extforcing_g_empmr_del2   =   0.0000000000000E+00
(PID.TID 0000.0001) %MON g__extforcing_g_fu_max       =   0.0000000000000E+00
(PID.TID 0000.0001) %MON g__extforcing_g_fu_min       =   0.0000000000000E+00
(PID.TID 0000.0001) %MON g__extforcing_g_fu_mean      =   0.0000000000000E+00
(PID.TID 0000.0001) %MON g__extforcing_g_fu_sd        =   0.0000000000000E+00
(PID.TID 0000.0001) %MON g__extforcing_g_fu_del2      =   0.0000000000000E+00
(PID.TID 0000.0001) %MON g__extforcing_g_fv_max       =   0.0000000000000E+00
(PID.TID 0000.0001) %MON g__extforcing_g_fv_min       =   0.0000000000000E+00
(PID.TID 0000.0001) %MON g__extforcing_g_fv_mean      =   0.0000000000000E+00
(PID.TID 0000.0001) %MON g__extforcing_g_fv_sd        =   0.0000000000000E+00
(PID.TID 0000.0001) %MON g__extforcing_g_fv_del2      =   0.0000000000000E+00
(PID.TID 0000.0001) %MON g__g_vcfl_g_uvel_max         =   8.5146863124332E-05
(PID.TID 0000.0001) %MON g__g_vcfl_g_vvel_max         =   4.2572509691418E-05
(PID.TID 0000.0001) %MON g__g_vcfl_g_wvel_max         =   1.5905151430491E-04
(PID.TID 0000.0001) %MON g__g_vcfl_g_W_hf_max         =   2.5739250970410E-04
(PID.TID 0000.0001) // =======================================================
(PID.TID 0000.0001) // End MONITOR dynamic field statistics
(PID.TID 0000.0001) // =======================================================
 cg2d: Sum(rhs),rhsMax =   6.11333078588289E-13  1.46549706156219E-02
 cg2d: Sum(rhs),rhsMax =  -7.55159823562224E-13  1.11482726022290E+01
(PID.TID 0000.0001) // =======================================================
(PID.TID 0000.0001) // Begin MONITOR dynamic field statistics
(PID.TID 0000.0001) // =======================================================
(PID.TID 0000.0001) %MON g__time_tsnumber             =                    22
(PID.TID 0000.0001) %MON g__time_secondsf             =   9.5040000000000E+05
(PID.TID 0000.0001) %MON g__dynstat_g_eta_max         =   4.3703544419877E-03
(PID.TID 0000.0001) %MON g__dynstat_g_eta_min         =  -5.4092369061024E-05
(PID.TID 0000.0001) %MON g__dynstat_g_eta_mean        =  -7.1030963018147E-19
(PID.TID 0000.0001) %MON g__dynstat_g_eta_sd          =   5.5177191462718E-05
(PID.TID 0000.0001) %MON g__dynstat_g_eta_del2        =   2.0662387322842E-06
(PID.TID 0000.0001) %MON g__dynstat_g_uvel_max        =   1.5949311344565E-04
(PID.TID 0000.0001) %MON g__dynstat_g_uvel_min        =  -9.0571881040144E-05
(PID.TID 0000.0001) %MON g__dynstat_g_uvel_mean       =   3.7300630561913E-08
(PID.TID 0000.0001) %MON g__dynstat_g_uvel_sd         =   4.7909894307620E-07
(PID.TID 0000.0001) %MON g__dynstat_g_uvel_del2       =   4.2453171425348E-08
(PID.TID 0000.0001) %MON g__dynstat_g_vvel_max        =   4.4916112228123E-04
(PID.TID 0000.0001) %MON g__dynstat_g_vvel_min        =  -1.5092901044369E-04
(PID.TID 0000.0001) %MON g__dynstat_g_vvel_mean       =  -1.3916959022426E-08
(PID.TID 0000.0001) %MON g__dynstat_g_vvel_sd         =   1.2798965687987E-06
(PID.TID 0000.0001) %MON g__dynstat_g_vvel_del2       =   5.7203911869077E-08
(PID.TID 0000.0001) %MON g__dynstat_g_wvel_max        =   1.4456935081775E-07
(PID.TID 0000.0001) %MON g__dynstat_g_wvel_min        =  -4.3363748836014E-08
(PID.TID 0000.0001) %MON g__dynstat_g_wvel_mean       =   1.2710519107917E-26
(PID.TID 0000.0001) %MON g__dynstat_g_wvel_sd         =   8.8476018135147E-10
(PID.TID 0000.0001) %MON g__dynstat_g_wvel_del2       =   1.1298814418411E-10
(PID.TID 0000.0001) %MON g__dynstat_g_theta_max       =   1.0073821944900E+00
(PID.TID 0000.0001) %MON g__dynstat_g_theta_min       =  -5.8643564641675E-05
(PID.TID 0000.0001) %MON g__dynstat_g_theta_mean      =   3.0263840278695E-06
(PID.TID 0000.0001) %MON g__dynstat_g_theta_sd        =   1.4845256335463E-03
(PID.TID 0000.0001) %MON g__dynstat_g_theta_del2      =   3.9530305453465E-05
(PID.TID 0000.0001) %MON g__dynstat_g_salt_max        =   3.7121100954563E-03
(PID.TID 0000.0001) %MON g__dynstat_g_salt_min        =  -2.7372116706509E-03
(PID.TID 0000.0001) %MON g__dynstat_g_salt_mean       =   3.2864155507643E-09
(PID.TID 0000.0001) %MON g__dynstat_g_salt_sd         =   6.9055627306354E-06
(PID.TID 0000.0001) %MON g__dynstat_g_salt_del2       =   3.9867148925153E-07
(PID.TID 0000.0001) %MON g__dynstat_g_sst_max         =   1.0073821944900E+00
(PID.TID 0000.0001) %MON g__dynstat_g_sst_min         =  -1.4794805835576E-05
(PID.TID 0000.0001) %MON g__dynstat_g_sst_mean        =   1.7298587474973E-04
(PID.TID 0000.0001) %MON g__dynstat_g_sst_sd          =   1.2684570205347E-02
(PID.TID 0000.0001) %MON g__dynstat_g_sst_del2        =   4.1905414280985E-04
(PID.TID 0000.0001) %MON g__dynstat_g_sss_max         =   3.7121100954563E-03
(PID.TID 0000.0001) %MON g__dynstat_g_sss_min         =  -2.7372116706509E-03
(PID.TID 0000.0001) %MON g__dynstat_g_sss_mean        =   2.1790051758232E-07
(PID.TID 0000.0001) %MON g__dynstat_g_sss_sd          =   5.8178679043975E-05
(PID.TID 0000.0001) %MON g__dynstat_g_sss_del2        =   3.8460070576552E-06
(PID.TID 0000.0001) %MON g__extforcing_g_qnet_max     =   0.0000000000000E+00
(PID.TID 0000.0001) %MON g__extforcing_g_qnet_min     =   0.0000000000000E+00
(PID.TID 0000.0001) %MON g__extforcing_g_qnet_mean    =   0.0000000000000E+00
(PID.TID 0000.0001) %MON g__extforcing_g_qnet_sd      =   0.0000000000000E+00
(PID.TID 0000.0001) %MON g__extforcing_g_qnet_del2    =   0.0000000000000E+00
(PID.TID 0000.0001) %MON g__extforcing_g_empmr_max    =   0.0000000000000E+00
(PID.TID 0000.0001) %MON g__extforcing_g_empmr_min    =   0.0000000000000E+00
(PID.TID 0000.0001) %MON g__extforcing_g_empmr_mean   =   0.0000000000000E+00
(PID.TID 0000.0001) %MON g__extforcing_g_empmr_sd     =   0.0000000000000E+00
(PID.TID 0000.0001) %MON g__extforcing_g_empmr_del2   =   0.0000000000000E+00
(PID.TID 0000.0001) %MON g__extforcing_g_fu_max       =   0.0000000000000E+00
(PID.TID 0000.0001) %MON g__extforcing_g_fu_min       =   0.0000000000000E+00
(PID.TID 0000.0001) %MON g__extforcing_g_fu_mean      =   0.0000000000000E+00
(PID.TID 0000.0001) %MON g__extforcing_g_fu_sd        =   0.0000000000000E+00
(PID.TID 0000.0001) %MON g__extforcing_g_fu_del2      =   0.0000000000000E+00
(PID.TID 0000.0001) %MON g__extforcing_g_fv_max       =   0.0000000000000E+00
(PID.TID 0000.0001) %MON g__extforcing_g_fv_min       =   0.0000000000000E+00
(PID.TID 0000.0001) %MON g__extforcing_g_fv_mean      =   0.0000000000000E+00
(PID.TID 0000.0001) %MON g__extforcing_g_fv_sd        =   0.0000000000000E+00
(PID.TID 0000.0001) %MON g__extforcing_g_fv_del2      =   0.0000000000000E+00
(PID.TID 0000.0001) %MON g__g_vcfl_g_uvel_max         =   5.6209641629736E-05
(PID.TID 0000.0001) %MON g__g_vcfl_g_vvel_max         =   4.3632401190455E-05
(PID.TID 0000.0001) %MON g__g_vcfl_g_wvel_max         =   1.5188959965699E-04
(PID.TID 0000.0001) %MON g__g_vcfl_g_W_hf_max         =   1.3970411191727E-04
(PID.TID 0000.0001) // =======================================================
(PID.TID 0000.0001) // End MONITOR dynamic field statistics
(PID.TID 0000.0001) // =======================================================
 cg2d: Sum(rhs),rhsMax =   7.83460606375466E-13  1.42588170111739E-02
 cg2d: Sum(rhs),rhsMax =  -9.23166057487101E-13  1.17644190526986E+01
(PID.TID 0000.0001) // =======================================================
(PID.TID 0000.0001) // Begin MONITOR dynamic field statistics
(PID.TID 0000.0001) // =======================================================
(PID.TID 0000.0001) %MON g__time_tsnumber             =                    23
(PID.TID 0000.0001) %MON g__time_secondsf             =   9.9360000000000E+05
(PID.TID 0000.0001) %MON g__dynstat_g_eta_max         =   4.2752527626977E-03
(PID.TID 0000.0001) %MON g__dynstat_g_eta_min         =  -6.1381704104504E-05
(PID.TID 0000.0001) %MON g__dynstat_g_eta_mean        =  -8.4009117492522E-19
(PID.TID 0000.0001) %MON g__dynstat_g_eta_sd          =   5.4095548419555E-05
(PID.TID 0000.0001) %MON g__dynstat_g_eta_del2        =   2.0104838084940E-06
(PID.TID 0000.0001) %MON g__dynstat_g_uvel_max        =   1.3317392150715E-04
(PID.TID 0000.0001) %MON g__dynstat_g_uvel_min        =  -8.8623567726518E-05
(PID.TID 0000.0001) %MON g__dynstat_g_uvel_mean       =   3.6991807482874E-08
(PID.TID 0000.0001) %MON g__dynstat_g_uvel_sd         =   4.3045774050323E-07
(PID.TID 0000.0001) %MON g__dynstat_g_uvel_del2       =   3.9837497796574E-08
(PID.TID 0000.0001) %MON g__dynstat_g_vvel_max        =   4.5802447428537E-04
(PID.TID 0000.0001) %MON g__dynstat_g_vvel_min        =  -1.4289545035174E-04
(PID.TID 0000.0001) %MON g__dynstat_g_vvel_mean       =  -1.3241193505697E-08
(PID.TID 0000.0001) %MON g__dynstat_g_vvel_sd         =   1.2428347731165E-06
(PID.TID 0000.0001) %MON g__dynstat_g_vvel_del2       =   5.6179959513873E-08
(PID.TID 0000.0001) %MON g__dynstat_g_wvel_max        =   9.6809719490578E-08
(PID.TID 0000.0001) %MON g__dynstat_g_wvel_min        =  -7.9251399408365E-08
(PID.TID 0000.0001) %MON g__dynstat_g_wvel_mean       =   4.4788741737848E-27
(PID.TID 0000.0001) %MON g__dynstat_g_wvel_sd         =   7.6827342214649E-10
(PID.TID 0000.0001) %MON g__dynstat_g_wvel_del2       =   1.0595602293389E-10
(PID.TID 0000.0001) %MON g__dynstat_g_theta_max       =   9.7503763862645E-01
(PID.TID 0000.0001) %MON g__dynstat_g_theta_min       =  -6.9485771874807E-05
(PID.TID 0000.0001) %MON g__dynstat_g_theta_mean      =   2.8979505502976E-06
(PID.TID 0000.0001) %MON g__dynstat_g_theta_sd        =   1.4334461345909E-03
(PID.TID 0000.0001) %MON g__dynstat_g_theta_del2      =   3.7921959947992E-05
(PID.TID 0000.0001) %MON g__dynstat_g_salt_max        =   3.7645757926032E-03
(PID.TID 0000.0001) %MON g__dynstat_g_salt_min        =  -2.7560648106027E-03
(PID.TID 0000.0001) %MON g__dynstat_g_salt_mean       =   3.3344068248658E-09
(PID.TID 0000.0001) %MON g__dynstat_g_salt_sd         =   7.0132019798401E-06
(PID.TID 0000.0001) %MON g__dynstat_g_salt_del2       =   4.0853007560249E-07
(PID.TID 0000.0001) %MON g__dynstat_g_sst_max         =   9.7503763862645E-01
(PID.TID 0000.0001) %MON g__dynstat_g_sst_min         =  -1.8425260925011E-05
(PID.TID 0000.0001) %MON g__dynstat_g_sst_mean        =   1.6725489194656E-04
(PID.TID 0000.0001) %MON g__dynstat_g_sst_sd          =   1.2276911968253E-02
(PID.TID 0000.0001) %MON g__dynstat_g_sst_del2        =   4.0579541468188E-04
(PID.TID 0000.0001) %MON g__dynstat_g_sss_max         =   3.7645757926032E-03
(PID.TID 0000.0001) %MON g__dynstat_g_sss_min         =  -2.7560648106027E-03
(PID.TID 0000.0001) %MON g__dynstat_g_sss_mean        =   2.2092806855954E-07
(PID.TID 0000.0001) %MON g__dynstat_g_sss_sd          =   5.8860715272907E-05
(PID.TID 0000.0001) %MON g__dynstat_g_sss_del2        =   3.8983531111687E-06
(PID.TID 0000.0001) %MON g__extforcing_g_qnet_max     =   0.0000000000000E+00
(PID.TID 0000.0001) %MON g__extforcing_g_qnet_min     =   0.0000000000000E+00
(PID.TID 0000.0001) %MON g__extforcing_g_qnet_mean    =   0.0000000000000E+00
(PID.TID 0000.0001) %MON g__extforcing_g_qnet_sd      =   0.0000000000000E+00
(PID.TID 0000.0001) %MON g__extforcing_g_qnet_del2    =   0.0000000000000E+00
(PID.TID 0000.0001) %MON g__extforcing_g_empmr_max    =   0.0000000000000E+00
(PID.TID 0000.0001) %MON g__extforcing_g_empmr_min    =   0.0000000000000E+00
(PID.TID 0000.0001) %MON g__extforcing_g_empmr_mean   =   0.0000000000000E+00
(PID.TID 0000.0001) %MON g__extforcing_g_empmr_sd     =   0.0000000000000E+00
(PID.TID 0000.0001) %MON g__extforcing_g_empmr_del2   =   0.0000000000000E+00
(PID.TID 0000.0001) %MON g__extforcing_g_fu_max       =   0.0000000000000E+00
(PID.TID 0000.0001) %MON g__extforcing_g_fu_min       =   0.0000000000000E+00
(PID.TID 0000.0001) %MON g__extforcing_g_fu_mean      =   0.0000000000000E+00
(PID.TID 0000.0001) %MON g__extforcing_g_fu_sd        =   0.0000000000000E+00
(PID.TID 0000.0001) %MON g__extforcing_g_fu_del2      =   0.0000000000000E+00
(PID.TID 0000.0001) %MON g__extforcing_g_fv_max       =   0.0000000000000E+00
(PID.TID 0000.0001) %MON g__extforcing_g_fv_min       =   0.0000000000000E+00
(PID.TID 0000.0001) %MON g__extforcing_g_fv_mean      =   0.0000000000000E+00
(PID.TID 0000.0001) %MON g__extforcing_g_fv_sd        =   0.0000000000000E+00
(PID.TID 0000.0001) %MON g__extforcing_g_fv_del2      =   0.0000000000000E+00
(PID.TID 0000.0001) %MON g__g_vcfl_g_uvel_max         =   4.6934054020424E-05
(PID.TID 0000.0001) %MON g__g_vcfl_g_vvel_max         =   4.4493404762119E-05
(PID.TID 0000.0001) %MON g__g_vcfl_g_wvel_max         =   1.3694641817765E-04
(PID.TID 0000.0001) %MON g__g_vcfl_g_W_hf_max         =   1.6728719527972E-04
(PID.TID 0000.0001) // =======================================================
(PID.TID 0000.0001) // End MONITOR dynamic field statistics
(PID.TID 0000.0001) // =======================================================
 cg2d: Sum(rhs),rhsMax =   9.58972826953606E-13  1.37718680493235E-02
 cg2d: Sum(rhs),rhsMax =  -9.18279341455275E-13  1.21959720875421E+01
(PID.TID 0000.0001) // =======================================================
(PID.TID 0000.0001) // Begin MONITOR dynamic field statistics
(PID.TID 0000.0001) // =======================================================
(PID.TID 0000.0001) %MON g__time_tsnumber             =                    24
(PID.TID 0000.0001) %MON g__time_secondsf             =   1.0368000000000E+06
(PID.TID 0000.0001) %MON g__dynstat_g_eta_max         =   4.1463103747281E-03
(PID.TID 0000.0001) %MON g__dynstat_g_eta_min         =  -6.5954306307178E-05
(PID.TID 0000.0001) %MON g__dynstat_g_eta_mean        =  -8.4444219504335E-19
(PID.TID 0000.0001) %MON g__dynstat_g_eta_sd          =   5.2597170415491E-05
(PID.TID 0000.0001) %MON g__dynstat_g_eta_del2        =   1.9566820376819E-06
(PID.TID 0000.0001) %MON g__dynstat_g_uvel_max        =   1.3155244833348E-04
(PID.TID 0000.0001) %MON g__dynstat_g_uvel_min        =  -8.6351976339087E-05
(PID.TID 0000.0001) %MON g__dynstat_g_uvel_mean       =   3.7099642036939E-08
(PID.TID 0000.0001) %MON g__dynstat_g_uvel_sd         =   4.5270477814549E-07
(PID.TID 0000.0001) %MON g__dynstat_g_uvel_del2       =   3.8733375390447E-08
(PID.TID 0000.0001) %MON g__dynstat_g_vvel_max        =   4.6348391073042E-04
(PID.TID 0000.0001) %MON g__dynstat_g_vvel_min        =  -1.3240020574043E-04
(PID.TID 0000.0001) %MON g__dynstat_g_vvel_mean       =  -1.2373858574070E-08
(PID.TID 0000.0001) %MON g__dynstat_g_vvel_sd         =   1.1962428969535E-06
(PID.TID 0000.0001) %MON g__dynstat_g_vvel_del2       =   5.4378149891920E-08
(PID.TID 0000.0001) %MON g__dynstat_g_wvel_max        =   1.0589811071198E-07
(PID.TID 0000.0001) %MON g__dynstat_g_wvel_min        =  -1.0745198997462E-07
(PID.TID 0000.0001) %MON g__dynstat_g_wvel_mean       =   6.1310690821195E-29
(PID.TID 0000.0001) %MON g__dynstat_g_wvel_sd         =   7.2749333271783E-10
(PID.TID 0000.0001) %MON g__dynstat_g_wvel_del2       =   1.0835472115940E-10
(PID.TID 0000.0001) %MON g__dynstat_g_theta_max       =   9.4435882505127E-01
(PID.TID 0000.0001) %MON g__dynstat_g_theta_min       =  -7.9220753009400E-05
(PID.TID 0000.0001) %MON g__dynstat_g_theta_mean      =   2.7780863460248E-06
(PID.TID 0000.0001) %MON g__dynstat_g_theta_sd        =   1.3852684043770E-03
(PID.TID 0000.0001) %MON g__dynstat_g_theta_del2      =   3.6421159750859E-05
(PID.TID 0000.0001) %MON g__dynstat_g_salt_max        =   3.8175686670773E-03
(PID.TID 0000.0001) %MON g__dynstat_g_salt_min        =  -2.7817496518467E-03
(PID.TID 0000.0001) %MON g__dynstat_g_salt_mean       =   3.3510828373185E-09
(PID.TID 0000.0001) %MON g__dynstat_g_salt_sd         =   7.1223468089393E-06
(PID.TID 0000.0001) %MON g__dynstat_g_salt_del2       =   4.1771960627724E-07
(PID.TID 0000.0001) %MON g__dynstat_g_sst_max         =   9.4435882505127E-01
(PID.TID 0000.0001) %MON g__dynstat_g_sst_min         =  -1.9867630200481E-05
(PID.TID 0000.0001) %MON g__dynstat_g_sst_mean        =   1.6184105949734E-04
(PID.TID 0000.0001) %MON g__dynstat_g_sst_sd          =   1.1890317937985E-02
(PID.TID 0000.0001) %MON g__dynstat_g_sst_del2        =   3.9318134033226E-04
(PID.TID 0000.0001) %MON g__dynstat_g_sss_max         =   3.8175686670773E-03
(PID.TID 0000.0001) %MON g__dynstat_g_sss_min         =  -2.7817496518467E-03
(PID.TID 0000.0001) %MON g__dynstat_g_sss_mean        =   2.2417775425911E-07
(PID.TID 0000.0001) %MON g__dynstat_g_sss_sd          =   5.9599569920194E-05
(PID.TID 0000.0001) %MON g__dynstat_g_sss_del2        =   3.9545926035334E-06
(PID.TID 0000.0001) %MON g__extforcing_g_qnet_max     =   0.0000000000000E+00
(PID.TID 0000.0001) %MON g__extforcing_g_qnet_min     =   0.0000000000000E+00
(PID.TID 0000.0001) %MON g__extforcing_g_qnet_mean    =   0.0000000000000E+00
(PID.TID 0000.0001) %MON g__extforcing_g_qnet_sd      =   0.0000000000000E+00
(PID.TID 0000.0001) %MON g__extforcing_g_qnet_del2    =   0.0000000000000E+00
(PID.TID 0000.0001) %MON g__extforcing_g_empmr_max    =   0.0000000000000E+00
(PID.TID 0000.0001) %MON g__extforcing_g_empmr_min    =   0.0000000000000E+00
(PID.TID 0000.0001) %MON g__extforcing_g_empmr_mean   =   0.0000000000000E+00
(PID.TID 0000.0001) %MON g__extforcing_g_empmr_sd     =   0.0000000000000E+00
(PID.TID 0000.0001) %MON g__extforcing_g_empmr_del2   =   0.0000000000000E+00
(PID.TID 0000.0001) %MON g__extforcing_g_fu_max       =   0.0000000000000E+00
(PID.TID 0000.0001) %MON g__extforcing_g_fu_min       =   0.0000000000000E+00
(PID.TID 0000.0001) %MON g__extforcing_g_fu_mean      =   0.0000000000000E+00
(PID.TID 0000.0001) %MON g__extforcing_g_fu_sd        =   0.0000000000000E+00
(PID.TID 0000.0001) %MON g__extforcing_g_fu_del2      =   0.0000000000000E+00
(PID.TID 0000.0001) %MON g__extforcing_g_fv_max       =   0.0000000000000E+00
(PID.TID 0000.0001) %MON g__extforcing_g_fv_min       =   0.0000000000000E+00
(PID.TID 0000.0001) %MON g__extforcing_g_fv_mean      =   0.0000000000000E+00
(PID.TID 0000.0001) %MON g__extforcing_g_fv_sd        =   0.0000000000000E+00
(PID.TID 0000.0001) %MON g__extforcing_g_fv_del2      =   0.0000000000000E+00
(PID.TID 0000.0001) %MON g__g_vcfl_g_uvel_max         =   4.6362603479174E-05
(PID.TID 0000.0001) %MON g__g_vcfl_g_vvel_max         =   4.5023745233339E-05
(PID.TID 0000.0001) %MON g__g_vcfl_g_wvel_max         =   1.8567703867615E-04
(PID.TID 0000.0001) %MON g__g_vcfl_g_W_hf_max         =   1.8299193531030E-04
(PID.TID 0000.0001) // =======================================================
(PID.TID 0000.0001) // End MONITOR dynamic field statistics
(PID.TID 0000.0001) // =======================================================
 cg2d: Sum(rhs),rhsMax =   1.00341415954207E-12  1.32436757487575E-02
 cg2d: Sum(rhs),rhsMax =  -8.32391447436187E-13  1.24221987652398E+01
(PID.TID 0000.0001) // =======================================================
(PID.TID 0000.0001) // Begin MONITOR dynamic field statistics
(PID.TID 0000.0001) // =======================================================
(PID.TID 0000.0001) %MON g__time_tsnumber             =                    25
(PID.TID 0000.0001) %MON g__time_secondsf             =   1.0800000000000E+06
(PID.TID 0000.0001) %MON g__dynstat_g_eta_max         =   3.9968608329937E-03
(PID.TID 0000.0001) %MON g__dynstat_g_eta_min         =  -8.4447520353430E-05
(PID.TID 0000.0001) %MON g__dynstat_g_eta_mean        =  -8.8876353711282E-19
(PID.TID 0000.0001) %MON g__dynstat_g_eta_sd          =   5.0810964060554E-05
(PID.TID 0000.0001) %MON g__dynstat_g_eta_del2        =   1.8936801791210E-06
(PID.TID 0000.0001) %MON g__dynstat_g_uvel_max        =   1.2337755684456E-04
(PID.TID 0000.0001) %MON g__dynstat_g_uvel_min        =  -1.3037925641039E-04
(PID.TID 0000.0001) %MON g__dynstat_g_uvel_mean       =   3.7445592693207E-08
(PID.TID 0000.0001) %MON g__dynstat_g_uvel_sd         =   5.3855054544712E-07
(PID.TID 0000.0001) %MON g__dynstat_g_uvel_del2       =   4.2510023010945E-08
(PID.TID 0000.0001) %MON g__dynstat_g_vvel_max        =   4.6421861964488E-04
(PID.TID 0000.0001) %MON g__dynstat_g_vvel_min        =  -1.2083892627144E-04
(PID.TID 0000.0001) %MON g__dynstat_g_vvel_mean       =  -1.1254904138402E-08
(PID.TID 0000.0001) %MON g__dynstat_g_vvel_sd         =   1.1445931100775E-06
(PID.TID 0000.0001) %MON g__dynstat_g_vvel_del2       =   5.2506886320267E-08
(PID.TID 0000.0001) %MON g__dynstat_g_wvel_max        =   1.1052724013619E-07
(PID.TID 0000.0001) %MON g__dynstat_g_wvel_min        =  -1.2726424143542E-07
(PID.TID 0000.0001) %MON g__dynstat_g_wvel_mean       =   7.8534071220268E-27
(PID.TID 0000.0001) %MON g__dynstat_g_wvel_sd         =   7.9169060123896E-10
(PID.TID 0000.0001) %MON g__dynstat_g_wvel_del2       =   1.1600097750601E-10
(PID.TID 0000.0001) %MON g__dynstat_g_theta_max       =   9.1719541004955E-01
(PID.TID 0000.0001) %MON g__dynstat_g_theta_min       =  -8.7596288377204E-05
(PID.TID 0000.0001) %MON g__dynstat_g_theta_mean      =   2.6761050147710E-06
(PID.TID 0000.0001) %MON g__dynstat_g_theta_sd        =   1.3430132282114E-03
(PID.TID 0000.0001) %MON g__dynstat_g_theta_del2      =   3.5114795678459E-05
(PID.TID 0000.0001) %MON g__dynstat_g_salt_max        =   3.8778005742958E-03
(PID.TID 0000.0001) %MON g__dynstat_g_salt_min        =  -2.8239347893354E-03
(PID.TID 0000.0001) %MON g__dynstat_g_salt_mean       =   3.3356965542096E-09
(PID.TID 0000.0001) %MON g__dynstat_g_salt_sd         =   7.2452952940226E-06
(PID.TID 0000.0001) %MON g__dynstat_g_salt_del2       =   4.2710199221523E-07
(PID.TID 0000.0001) %MON g__dynstat_g_sst_max         =   9.1719541004955E-01
(PID.TID 0000.0001) %MON g__dynstat_g_sst_min         =  -2.6967202956698E-05
(PID.TID 0000.0001) %MON g__dynstat_g_sst_mean        =   1.5709947824958E-04
(PID.TID 0000.0001) %MON g__dynstat_g_sst_sd          =   1.1548199856379E-02
(PID.TID 0000.0001) %MON g__dynstat_g_sst_del2        =   3.8193637180173E-04
(PID.TID 0000.0001) %MON g__dynstat_g_sss_max         =   3.8778005742958E-03
(PID.TID 0000.0001) %MON g__dynstat_g_sss_min         =  -2.8239347893354E-03
(PID.TID 0000.0001) %MON g__dynstat_g_sss_mean        =   2.2748432044380E-07
(PID.TID 0000.0001) %MON g__dynstat_g_sss_sd          =   6.0533896622565E-05
(PID.TID 0000.0001) %MON g__dynstat_g_sss_del2        =   4.0230306734783E-06
(PID.TID 0000.0001) %MON g__extforcing_g_qnet_max     =   0.0000000000000E+00
(PID.TID 0000.0001) %MON g__extforcing_g_qnet_min     =   0.0000000000000E+00
(PID.TID 0000.0001) %MON g__extforcing_g_qnet_mean    =   0.0000000000000E+00
(PID.TID 0000.0001) %MON g__extforcing_g_qnet_sd      =   0.0000000000000E+00
(PID.TID 0000.0001) %MON g__extforcing_g_qnet_del2    =   0.0000000000000E+00
(PID.TID 0000.0001) %MON g__extforcing_g_empmr_max    =   0.0000000000000E+00
(PID.TID 0000.0001) %MON g__extforcing_g_empmr_min    =   0.0000000000000E+00
(PID.TID 0000.0001) %MON g__extforcing_g_empmr_mean   =   0.0000000000000E+00
(PID.TID 0000.0001) %MON g__extforcing_g_empmr_sd     =   0.0000000000000E+00
(PID.TID 0000.0001) %MON g__extforcing_g_empmr_del2   =   0.0000000000000E+00
(PID.TID 0000.0001) %MON g__extforcing_g_fu_max       =   0.0000000000000E+00
(PID.TID 0000.0001) %MON g__extforcing_g_fu_min       =   0.0000000000000E+00
(PID.TID 0000.0001) %MON g__extforcing_g_fu_mean      =   0.0000000000000E+00
(PID.TID 0000.0001) %MON g__extforcing_g_fu_sd        =   0.0000000000000E+00
(PID.TID 0000.0001) %MON g__extforcing_g_fu_del2      =   0.0000000000000E+00
(PID.TID 0000.0001) %MON g__extforcing_g_fv_max       =   0.0000000000000E+00
(PID.TID 0000.0001) %MON g__extforcing_g_fv_min       =   0.0000000000000E+00
(PID.TID 0000.0001) %MON g__extforcing_g_fv_mean      =   0.0000000000000E+00
(PID.TID 0000.0001) %MON g__extforcing_g_fv_sd        =   0.0000000000000E+00
(PID.TID 0000.0001) %MON g__extforcing_g_fv_del2      =   0.0000000000000E+00
(PID.TID 0000.0001) %MON g__g_vcfl_g_uvel_max         =   4.5949139247802E-05
(PID.TID 0000.0001) %MON g__g_vcfl_g_vvel_max         =   4.5095116312722E-05
(PID.TID 0000.0001) %MON g__g_vcfl_g_wvel_max         =   2.1520734009751E-04
(PID.TID 0000.0001) %MON g__g_vcfl_g_W_hf_max         =   2.1991260920040E-04
(PID.TID 0000.0001) // =======================================================
(PID.TID 0000.0001) // End MONITOR dynamic field statistics
(PID.TID 0000.0001) // =======================================================
 cg2d: Sum(rhs),rhsMax =   1.09854245488221E-12  1.27247870583878E-02
 cg2d: Sum(rhs),rhsMax =  -8.60617133113806E-13  1.24298971531140E+01
(PID.TID 0000.0001) // =======================================================
(PID.TID 0000.0001) // Begin MONITOR dynamic field statistics
(PID.TID 0000.0001) // =======================================================
(PID.TID 0000.0001) %MON g__time_tsnumber             =                    26
(PID.TID 0000.0001) %MON g__time_secondsf             =   1.1232000000000E+06
(PID.TID 0000.0001) %MON g__dynstat_g_eta_max         =   3.8419334353037E-03
(PID.TID 0000.0001) %MON g__dynstat_g_eta_min         =  -1.0178654055728E-04
(PID.TID 0000.0001) %MON g__dynstat_g_eta_mean        =  -9.5585041535598E-19
(PID.TID 0000.0001) %MON g__dynstat_g_eta_sd          =   4.8898561869643E-05
(PID.TID 0000.0001) %MON g__dynstat_g_eta_del2        =   1.8327072181002E-06
(PID.TID 0000.0001) %MON g__dynstat_g_uvel_max        =   1.0950519417944E-04
(PID.TID 0000.0001) %MON g__dynstat_g_uvel_min        =  -2.2906305180863E-04
(PID.TID 0000.0001) %MON g__dynstat_g_uvel_mean       =   3.7816303883579E-08
(PID.TID 0000.0001) %MON g__dynstat_g_uvel_sd         =   6.5439801905530E-07
(PID.TID 0000.0001) %MON g__dynstat_g_uvel_del2       =   4.8166247444354E-08
(PID.TID 0000.0001) %MON g__dynstat_g_vvel_max        =   4.5919376770944E-04
(PID.TID 0000.0001) %MON g__dynstat_g_vvel_min        =  -1.0962429250825E-04
(PID.TID 0000.0001) %MON g__dynstat_g_vvel_mean       =  -9.9212968323560E-09
(PID.TID 0000.0001) %MON g__dynstat_g_vvel_sd         =   1.0908574852827E-06
(PID.TID 0000.0001) %MON g__dynstat_g_vvel_del2       =   5.0800545439368E-08
(PID.TID 0000.0001) %MON g__dynstat_g_wvel_max        =   1.1338935346677E-07
(PID.TID 0000.0001) %MON g__dynstat_g_wvel_min        =  -1.7470671715277E-07
(PID.TID 0000.0001) %MON g__dynstat_g_wvel_mean       =  -2.2834602301567E-27
(PID.TID 0000.0001) %MON g__dynstat_g_wvel_sd         =   9.1723860237439E-10
(PID.TID 0000.0001) %MON g__dynstat_g_wvel_del2       =   1.2417890582666E-10
(PID.TID 0000.0001) %MON g__dynstat_g_theta_max       =   8.9474362843254E-01
(PID.TID 0000.0001) %MON g__dynstat_g_theta_min       =  -9.4591006463712E-05
(PID.TID 0000.0001) %MON g__dynstat_g_theta_mean      =   2.5976772183623E-06
(PID.TID 0000.0001) %MON g__dynstat_g_theta_sd        =   1.3085587174927E-03
(PID.TID 0000.0001) %MON g__dynstat_g_theta_del2      =   3.4066828645772E-05
(PID.TID 0000.0001) %MON g__dynstat_g_salt_max        =   3.9507761147592E-03
(PID.TID 0000.0001) %MON g__dynstat_g_salt_min        =  -2.8894795384321E-03
(PID.TID 0000.0001) %MON g__dynstat_g_salt_mean       =   3.2795855363791E-09
(PID.TID 0000.0001) %MON g__dynstat_g_salt_sd         =   7.3917553470111E-06
(PID.TID 0000.0001) %MON g__dynstat_g_salt_del2       =   4.3658838664975E-07
(PID.TID 0000.0001) %MON g__dynstat_g_sst_max         =   8.9474362843254E-01
(PID.TID 0000.0001) %MON g__dynstat_g_sst_min         =  -3.0750129604481E-05
(PID.TID 0000.0001) %MON g__dynstat_g_sst_mean        =   1.5325896343559E-04
(PID.TID 0000.0001) %MON g__dynstat_g_sst_sd          =   1.1265688925263E-02
(PID.TID 0000.0001) %MON g__dynstat_g_sst_del2        =   3.7254610867490E-04
(PID.TID 0000.0001) %MON g__dynstat_g_sss_max         =   3.9507761147592E-03
(PID.TID 0000.0001) %MON g__dynstat_g_sss_min         =  -2.8894795384321E-03
(PID.TID 0000.0001) %MON g__dynstat_g_sss_mean        =   2.3062748695763E-07
(PID.TID 0000.0001) %MON g__dynstat_g_sss_sd          =   6.1769665309737E-05
(PID.TID 0000.0001) %MON g__dynstat_g_sss_del2        =   4.1094189132960E-06
(PID.TID 0000.0001) %MON g__extforcing_g_qnet_max     =   0.0000000000000E+00
(PID.TID 0000.0001) %MON g__extforcing_g_qnet_min     =   0.0000000000000E+00
(PID.TID 0000.0001) %MON g__extforcing_g_qnet_mean    =   0.0000000000000E+00
(PID.TID 0000.0001) %MON g__extforcing_g_qnet_sd      =   0.0000000000000E+00
(PID.TID 0000.0001) %MON g__extforcing_g_qnet_del2    =   0.0000000000000E+00
(PID.TID 0000.0001) %MON g__extforcing_g_empmr_max    =   0.0000000000000E+00
(PID.TID 0000.0001) %MON g__extforcing_g_empmr_min    =   0.0000000000000E+00
(PID.TID 0000.0001) %MON g__extforcing_g_empmr_mean   =   0.0000000000000E+00
(PID.TID 0000.0001) %MON g__extforcing_g_empmr_sd     =   0.0000000000000E+00
(PID.TID 0000.0001) %MON g__extforcing_g_empmr_del2   =   0.0000000000000E+00
(PID.TID 0000.0001) %MON g__extforcing_g_fu_max       =   0.0000000000000E+00
(PID.TID 0000.0001) %MON g__extforcing_g_fu_min       =   0.0000000000000E+00
(PID.TID 0000.0001) %MON g__extforcing_g_fu_mean      =   0.0000000000000E+00
(PID.TID 0000.0001) %MON g__extforcing_g_fu_sd        =   0.0000000000000E+00
(PID.TID 0000.0001) %MON g__extforcing_g_fu_del2      =   0.0000000000000E+00
(PID.TID 0000.0001) %MON g__extforcing_g_fv_max       =   0.0000000000000E+00
(PID.TID 0000.0001) %MON g__extforcing_g_fv_min       =   0.0000000000000E+00
(PID.TID 0000.0001) %MON g__extforcing_g_fv_mean      =   0.0000000000000E+00
(PID.TID 0000.0001) %MON g__extforcing_g_fv_sd        =   0.0000000000000E+00
(PID.TID 0000.0001) %MON g__extforcing_g_fv_del2      =   0.0000000000000E+00
(PID.TID 0000.0001) %MON g__g_vcfl_g_uvel_max         =   8.0727949781760E-05
(PID.TID 0000.0001) %MON g__g_vcfl_g_vvel_max         =   4.4606992241662E-05
(PID.TID 0000.0001) %MON g__g_vcfl_g_wvel_max         =   2.2309545267373E-04
(PID.TID 0000.0001) %MON g__g_vcfl_g_W_hf_max         =   3.0189320723998E-04
(PID.TID 0000.0001) // =======================================================
(PID.TID 0000.0001) // End MONITOR dynamic field statistics
(PID.TID 0000.0001) // =======================================================
 cg2d: Sum(rhs),rhsMax =   1.22880808344619E-12  1.22598744300789E-02
 cg2d: Sum(rhs),rhsMax =  -1.07162542728467E-12  1.22139653314387E+01
(PID.TID 0000.0001) // =======================================================
(PID.TID 0000.0001) // Begin MONITOR dynamic field statistics
(PID.TID 0000.0001) // =======================================================
(PID.TID 0000.0001) %MON g__time_tsnumber             =                    27
(PID.TID 0000.0001) %MON g__time_secondsf             =   1.1664000000000E+06
(PID.TID 0000.0001) %MON g__dynstat_g_eta_max         =   3.6960553939526E-03
(PID.TID 0000.0001) %MON g__dynstat_g_eta_min         =  -1.1090501206719E-04
(PID.TID 0000.0001) %MON g__dynstat_g_eta_mean        =  -1.0743834915334E-18
(PID.TID 0000.0001) %MON g__dynstat_g_eta_sd          =   4.7036816563421E-05
(PID.TID 0000.0001) %MON g__dynstat_g_eta_del2        =   1.7698420804180E-06
(PID.TID 0000.0001) %MON g__dynstat_g_uvel_max        =   1.0055440946462E-04
(PID.TID 0000.0001) %MON g__dynstat_g_uvel_min        =  -3.2098453431309E-04
(PID.TID 0000.0001) %MON g__dynstat_g_uvel_mean       =   3.8005595732498E-08
(PID.TID 0000.0001) %MON g__dynstat_g_uvel_sd         =   7.7241927697825E-07
(PID.TID 0000.0001) %MON g__dynstat_g_uvel_del2       =   5.3356321250209E-08
(PID.TID 0000.0001) %MON g__dynstat_g_vvel_max        =   4.4785248646749E-04
(PID.TID 0000.0001) %MON g__dynstat_g_vvel_min        =  -9.9972709795894E-05
(PID.TID 0000.0001) %MON g__dynstat_g_vvel_mean       =  -8.4959566888392E-09
(PID.TID 0000.0001) %MON g__dynstat_g_vvel_sd         =   1.0362645334016E-06
(PID.TID 0000.0001) %MON g__dynstat_g_vvel_del2       =   4.9579025279180E-08
(PID.TID 0000.0001) %MON g__dynstat_g_wvel_max        =   1.1678562124651E-07
(PID.TID 0000.0001) %MON g__dynstat_g_wvel_min        =  -2.0778154825233E-07
(PID.TID 0000.0001) %MON g__dynstat_g_wvel_mean       =  -2.9052612649506E-27
(PID.TID 0000.0001) %MON g__dynstat_g_wvel_sd         =   1.0400059205625E-09
(PID.TID 0000.0001) %MON g__dynstat_g_wvel_del2       =   1.3136331197100E-10
(PID.TID 0000.0001) %MON g__dynstat_g_theta_max       =   8.7754401521516E-01
(PID.TID 0000.0001) %MON g__dynstat_g_theta_min       =  -1.0032001121061E-04
(PID.TID 0000.0001) %MON g__dynstat_g_theta_mean      =   2.5451584513157E-06
(PID.TID 0000.0001) %MON g__dynstat_g_theta_sd        =   1.2827032704591E-03
(PID.TID 0000.0001) %MON g__dynstat_g_theta_del2      =   3.3305089842278E-05
(PID.TID 0000.0001) %MON g__dynstat_g_salt_max        =   4.0404741990345E-03
(PID.TID 0000.0001) %MON g__dynstat_g_salt_min        =  -2.9821467811590E-03
(PID.TID 0000.0001) %MON g__dynstat_g_salt_mean       =   3.1684931677457E-09
(PID.TID 0000.0001) %MON g__dynstat_g_salt_sd         =   7.5687312324169E-06
(PID.TID 0000.0001) %MON g__dynstat_g_salt_del2       =   4.4672091840162E-07
(PID.TID 0000.0001) %MON g__dynstat_g_sst_max         =   8.7754401521516E-01
(PID.TID 0000.0001) %MON g__dynstat_g_sst_min         =  -4.1070387765226E-05
(PID.TID 0000.0001) %MON g__dynstat_g_sst_mean        =   1.5042413211313E-04
(PID.TID 0000.0001) %MON g__dynstat_g_sst_sd          =   1.1049622157425E-02
(PID.TID 0000.0001) %MON g__dynstat_g_sst_del2        =   3.6521524588916E-04
(PID.TID 0000.0001) %MON g__dynstat_g_sss_max         =   4.0404741990345E-03
(PID.TID 0000.0001) %MON g__dynstat_g_sss_min         =  -2.9821467811590E-03
(PID.TID 0000.0001) %MON g__dynstat_g_sss_mean        =   2.3342294536009E-07
(PID.TID 0000.0001) %MON g__dynstat_g_sss_sd          =   6.3375549871619E-05
(PID.TID 0000.0001) %MON g__dynstat_g_sss_del2        =   4.2170504750318E-06
(PID.TID 0000.0001) %MON g__extforcing_g_qnet_max     =   0.0000000000000E+00
(PID.TID 0000.0001) %MON g__extforcing_g_qnet_min     =   0.0000000000000E+00
(PID.TID 0000.0001) %MON g__extforcing_g_qnet_mean    =   0.0000000000000E+00
(PID.TID 0000.0001) %MON g__extforcing_g_qnet_sd      =   0.0000000000000E+00
(PID.TID 0000.0001) %MON g__extforcing_g_qnet_del2    =   0.0000000000000E+00
(PID.TID 0000.0001) %MON g__extforcing_g_empmr_max    =   0.0000000000000E+00
(PID.TID 0000.0001) %MON g__extforcing_g_empmr_min    =   0.0000000000000E+00
(PID.TID 0000.0001) %MON g__extforcing_g_empmr_mean   =   0.0000000000000E+00
(PID.TID 0000.0001) %MON g__extforcing_g_empmr_sd     =   0.0000000000000E+00
(PID.TID 0000.0001) %MON g__extforcing_g_empmr_del2   =   0.0000000000000E+00
(PID.TID 0000.0001) %MON g__extforcing_g_fu_max       =   0.0000000000000E+00
(PID.TID 0000.0001) %MON g__extforcing_g_fu_min       =   0.0000000000000E+00
(PID.TID 0000.0001) %MON g__extforcing_g_fu_mean      =   0.0000000000000E+00
(PID.TID 0000.0001) %MON g__extforcing_g_fu_sd        =   0.0000000000000E+00
(PID.TID 0000.0001) %MON g__extforcing_g_fu_del2      =   0.0000000000000E+00
(PID.TID 0000.0001) %MON g__extforcing_g_fv_max       =   0.0000000000000E+00
(PID.TID 0000.0001) %MON g__extforcing_g_fv_min       =   0.0000000000000E+00
(PID.TID 0000.0001) %MON g__extforcing_g_fv_mean      =   0.0000000000000E+00
(PID.TID 0000.0001) %MON g__extforcing_g_fv_sd        =   0.0000000000000E+00
(PID.TID 0000.0001) %MON g__extforcing_g_fv_del2      =   0.0000000000000E+00
(PID.TID 0000.0001) %MON g__g_vcfl_g_uvel_max         =   1.1312354027483E-04
(PID.TID 0000.0001) %MON g__g_vcfl_g_vvel_max         =   4.3505277715148E-05
(PID.TID 0000.0001) %MON g__g_vcfl_g_wvel_max         =   2.1006437954551E-04
(PID.TID 0000.0001) %MON g__g_vcfl_g_W_hf_max         =   3.5904651538003E-04
(PID.TID 0000.0001) // =======================================================
(PID.TID 0000.0001) // End MONITOR dynamic field statistics
(PID.TID 0000.0001) // =======================================================
 cg2d: Sum(rhs),rhsMax =   1.42415948544062E-12  1.18835855207908E-02
 cg2d: Sum(rhs),rhsMax =  -1.22979404437729E-12  1.17775992285089E+01
(PID.TID 0000.0001) // =======================================================
(PID.TID 0000.0001) // Begin MONITOR dynamic field statistics
(PID.TID 0000.0001) // =======================================================
(PID.TID 0000.0001) %MON g__time_tsnumber             =                    28
(PID.TID 0000.0001) %MON g__time_secondsf             =   1.2096000000000E+06
(PID.TID 0000.0001) %MON g__dynstat_g_eta_max         =   3.5716550599106E-03
(PID.TID 0000.0001) %MON g__dynstat_g_eta_min         =  -1.1069937143388E-04
(PID.TID 0000.0001) %MON g__dynstat_g_eta_mean        =  -1.1460067127648E-18
(PID.TID 0000.0001) %MON g__dynstat_g_eta_sd          =   4.5397780677367E-05
(PID.TID 0000.0001) %MON g__dynstat_g_eta_del2        =   1.7096410961707E-06
(PID.TID 0000.0001) %MON g__dynstat_g_uvel_max        =   1.1546417401493E-04
(PID.TID 0000.0001) %MON g__dynstat_g_uvel_min        =  -4.0162580620696E-04
(PID.TID 0000.0001) %MON g__dynstat_g_uvel_mean       =   3.7851088011189E-08
(PID.TID 0000.0001) %MON g__dynstat_g_uvel_sd         =   8.7615618806186E-07
(PID.TID 0000.0001) %MON g__dynstat_g_uvel_del2       =   5.7281558255613E-08
(PID.TID 0000.0001) %MON g__dynstat_g_vvel_max        =   4.3022078256291E-04
(PID.TID 0000.0001) %MON g__dynstat_g_vvel_min        =  -9.2757228736080E-05
(PID.TID 0000.0001) %MON g__dynstat_g_vvel_mean       =  -7.1601292335856E-09
(PID.TID 0000.0001) %MON g__dynstat_g_vvel_sd         =   9.8101105808449E-07
(PID.TID 0000.0001) %MON g__dynstat_g_vvel_del2       =   4.9033827762815E-08
(PID.TID 0000.0001) %MON g__dynstat_g_wvel_max        =   1.2769734222129E-07
(PID.TID 0000.0001) %MON g__dynstat_g_wvel_min        =  -2.2625074182720E-07
(PID.TID 0000.0001) %MON g__dynstat_g_wvel_mean       =   2.8577761646744E-27
(PID.TID 0000.0001) %MON g__dynstat_g_wvel_sd         =   1.1183250491126E-09
(PID.TID 0000.0001) %MON g__dynstat_g_wvel_del2       =   1.3644997858774E-10
(PID.TID 0000.0001) %MON g__dynstat_g_theta_max       =   8.6556808032943E-01
(PID.TID 0000.0001) %MON g__dynstat_g_theta_min       =  -1.0499159198083E-04
(PID.TID 0000.0001) %MON g__dynstat_g_theta_mean      =   2.5182553966482E-06
(PID.TID 0000.0001) %MON g__dynstat_g_theta_sd        =   1.2653559753948E-03
(PID.TID 0000.0001) %MON g__dynstat_g_theta_del2      =   3.2841110637050E-05
(PID.TID 0000.0001) %MON g__dynstat_g_salt_max        =   4.1492036213378E-03
(PID.TID 0000.0001) %MON g__dynstat_g_salt_min        =  -3.1027860395286E-03
(PID.TID 0000.0001) %MON g__dynstat_g_salt_mean       =   2.9865046301195E-09
(PID.TID 0000.0001) %MON g__dynstat_g_salt_sd         =   7.7802900856320E-06
(PID.TID 0000.0001) %MON g__dynstat_g_salt_del2       =   4.5760960475780E-07
(PID.TID 0000.0001) %MON g__dynstat_g_sst_max         =   8.6556808032943E-01
(PID.TID 0000.0001) %MON g__dynstat_g_sst_min         =  -4.9824282648577E-05
(PID.TID 0000.0001) %MON g__dynstat_g_sst_mean        =   1.4859315559141E-04
(PID.TID 0000.0001) %MON g__dynstat_g_sst_sd          =   1.0899648375339E-02
(PID.TID 0000.0001) %MON g__dynstat_g_sst_del2        =   3.5994386045845E-04
(PID.TID 0000.0001) %MON g__dynstat_g_sss_max         =   4.1492036213378E-03
(PID.TID 0000.0001) %MON g__dynstat_g_sss_min         =  -3.1027860395286E-03
(PID.TID 0000.0001) %MON g__dynstat_g_sss_mean        =   2.3574770261801E-07
(PID.TID 0000.0001) %MON g__dynstat_g_sss_sd          =   6.5382903235008E-05
(PID.TID 0000.0001) %MON g__dynstat_g_sss_del2        =   4.3477219314730E-06
(PID.TID 0000.0001) %MON g__extforcing_g_qnet_max     =   0.0000000000000E+00
(PID.TID 0000.0001) %MON g__extforcing_g_qnet_min     =   0.0000000000000E+00
(PID.TID 0000.0001) %MON g__extforcing_g_qnet_mean    =   0.0000000000000E+00
(PID.TID 0000.0001) %MON g__extforcing_g_qnet_sd      =   0.0000000000000E+00
(PID.TID 0000.0001) %MON g__extforcing_g_qnet_del2    =   0.0000000000000E+00
(PID.TID 0000.0001) %MON g__extforcing_g_empmr_max    =   0.0000000000000E+00
(PID.TID 0000.0001) %MON g__extforcing_g_empmr_min    =   0.0000000000000E+00
(PID.TID 0000.0001) %MON g__extforcing_g_empmr_mean   =   0.0000000000000E+00
(PID.TID 0000.0001) %MON g__extforcing_g_empmr_sd     =   0.0000000000000E+00
(PID.TID 0000.0001) %MON g__extforcing_g_empmr_del2   =   0.0000000000000E+00
(PID.TID 0000.0001) %MON g__extforcing_g_fu_max       =   0.0000000000000E+00
(PID.TID 0000.0001) %MON g__extforcing_g_fu_min       =   0.0000000000000E+00
(PID.TID 0000.0001) %MON g__extforcing_g_fu_mean      =   0.0000000000000E+00
(PID.TID 0000.0001) %MON g__extforcing_g_fu_sd        =   0.0000000000000E+00
(PID.TID 0000.0001) %MON g__extforcing_g_fu_del2      =   0.0000000000000E+00
(PID.TID 0000.0001) %MON g__extforcing_g_fv_max       =   0.0000000000000E+00
(PID.TID 0000.0001) %MON g__extforcing_g_fv_min       =   0.0000000000000E+00
(PID.TID 0000.0001) %MON g__extforcing_g_fv_mean      =   0.0000000000000E+00
(PID.TID 0000.0001) %MON g__extforcing_g_fv_sd        =   0.0000000000000E+00
(PID.TID 0000.0001) %MON g__extforcing_g_fv_del2      =   0.0000000000000E+00
(PID.TID 0000.0001) %MON g__g_vcfl_g_uvel_max         =   1.4154368266088E-04
(PID.TID 0000.0001) %MON g__g_vcfl_g_vvel_max         =   4.1792499070084E-05
(PID.TID 0000.0001) %MON g__g_vcfl_g_wvel_max         =   1.7913648102051E-04
(PID.TID 0000.0001) %MON g__g_vcfl_g_W_hf_max         =   3.9096128187741E-04
(PID.TID 0000.0001) // =======================================================
(PID.TID 0000.0001) // End MONITOR dynamic field statistics
(PID.TID 0000.0001) // =======================================================
 cg2d: Sum(rhs),rhsMax =   1.55228654909445E-12  1.16189902064504E-02
 cg2d: Sum(rhs),rhsMax =  -8.29017410275412E-13  1.11321543547212E+01
(PID.TID 0000.0001) // =======================================================
(PID.TID 0000.0001) // Begin MONITOR dynamic field statistics
(PID.TID 0000.0001) // =======================================================
(PID.TID 0000.0001) %MON g__time_tsnumber             =                    29
(PID.TID 0000.0001) %MON g__time_secondsf             =   1.2528000000000E+06
(PID.TID 0000.0001) %MON g__dynstat_g_eta_max         =   3.4781471303431E-03
(PID.TID 0000.0001) %MON g__dynstat_g_eta_min         =  -1.0150519008642E-04
(PID.TID 0000.0001) %MON g__dynstat_g_eta_mean        =  -1.1693218776257E-18
(PID.TID 0000.0001) %MON g__dynstat_g_eta_sd          =   4.4127620880427E-05
(PID.TID 0000.0001) %MON g__dynstat_g_eta_del2        =   1.6640446878088E-06
(PID.TID 0000.0001) %MON g__dynstat_g_uvel_max        =   1.2512485675782E-04
(PID.TID 0000.0001) %MON g__dynstat_g_uvel_min        =  -4.6719344974786E-04
(PID.TID 0000.0001) %MON g__dynstat_g_uvel_mean       =   3.7259584422817E-08
(PID.TID 0000.0001) %MON g__dynstat_g_uvel_sd         =   9.5663785814463E-07
(PID.TID 0000.0001) %MON g__dynstat_g_uvel_del2       =   6.0043722026892E-08
(PID.TID 0000.0001) %MON g__dynstat_g_vvel_max        =   4.0692015538267E-04
(PID.TID 0000.0001) %MON g__dynstat_g_vvel_min        =  -8.8439195333657E-05
(PID.TID 0000.0001) %MON g__dynstat_g_vvel_mean       =  -6.1166163340449E-09
(PID.TID 0000.0001) %MON g__dynstat_g_vvel_sd         =   9.2548311357606E-07
(PID.TID 0000.0001) %MON g__dynstat_g_vvel_del2       =   4.9002203933006E-08
(PID.TID 0000.0001) %MON g__dynstat_g_wvel_max        =   1.4181567857074E-07
(PID.TID 0000.0001) %MON g__dynstat_g_wvel_min        =  -2.3089329605362E-07
(PID.TID 0000.0001) %MON g__dynstat_g_wvel_mean       =   6.2405989511251E-27
(PID.TID 0000.0001) %MON g__dynstat_g_wvel_sd         =   1.1358459059815E-09
(PID.TID 0000.0001) %MON g__dynstat_g_wvel_del2       =   1.3959073404998E-10
(PID.TID 0000.0001) %MON g__dynstat_g_theta_max       =   8.5835227828556E-01
(PID.TID 0000.0001) %MON g__dynstat_g_theta_min       =  -1.0863005585720E-04
(PID.TID 0000.0001) %MON g__dynstat_g_theta_mean      =   2.5147699374753E-06
(PID.TID 0000.0001) %MON g__dynstat_g_theta_sd        =   1.2557729824188E-03
(PID.TID 0000.0001) %MON g__dynstat_g_theta_del2      =   3.2625214634878E-05
(PID.TID 0000.0001) %MON g__dynstat_g_salt_max        =   4.2776152371398E-03
(PID.TID 0000.0001) %MON g__dynstat_g_salt_min        =  -3.2497758944302E-03
(PID.TID 0000.0001) %MON g__dynstat_g_salt_mean       =   2.7206913208435E-09
(PID.TID 0000.0001) %MON g__dynstat_g_salt_sd         =   8.0287513351630E-06
(PID.TID 0000.0001) %MON g__dynstat_g_salt_del2       =   4.6878902895153E-07
(PID.TID 0000.0001) %MON g__dynstat_g_sst_max         =   8.5835227828556E-01
(PID.TID 0000.0001) %MON g__dynstat_g_sst_min         =  -5.4263404011060E-05
(PID.TID 0000.0001) %MON g__dynstat_g_sst_mean        =   1.4768309701387E-04
(PID.TID 0000.0001) %MON g__dynstat_g_sst_sd          =   1.0809924472675E-02
(PID.TID 0000.0001) %MON g__dynstat_g_sst_del2        =   3.5654680104875E-04
(PID.TID 0000.0001) %MON g__dynstat_g_sss_max         =   4.2776152371398E-03
(PID.TID 0000.0001) %MON g__dynstat_g_sss_min         =  -3.2497758944302E-03
(PID.TID 0000.0001) %MON g__dynstat_g_sss_mean        =   2.3755645514471E-07
(PID.TID 0000.0001) %MON g__dynstat_g_sss_sd          =   6.7788595482761E-05
(PID.TID 0000.0001) %MON g__dynstat_g_sss_del2        =   4.4996307567429E-06
(PID.TID 0000.0001) %MON g__extforcing_g_qnet_max     =   0.0000000000000E+00
(PID.TID 0000.0001) %MON g__extforcing_g_qnet_min     =   0.0000000000000E+00
(PID.TID 0000.0001) %MON g__extforcing_g_qnet_mean    =   0.0000000000000E+00
(PID.TID 0000.0001) %MON g__extforcing_g_qnet_sd      =   0.0000000000000E+00
(PID.TID 0000.0001) %MON g__extforcing_g_qnet_del2    =   0.0000000000000E+00
(PID.TID 0000.0001) %MON g__extforcing_g_empmr_max    =   0.0000000000000E+00
(PID.TID 0000.0001) %MON g__extforcing_g_empmr_min    =   0.0000000000000E+00
(PID.TID 0000.0001) %MON g__extforcing_g_empmr_mean   =   0.0000000000000E+00
(PID.TID 0000.0001) %MON g__extforcing_g_empmr_sd     =   0.0000000000000E+00
(PID.TID 0000.0001) %MON g__extforcing_g_empmr_del2   =   0.0000000000000E+00
(PID.TID 0000.0001) %MON g__extforcing_g_fu_max       =   0.0000000000000E+00
(PID.TID 0000.0001) %MON g__extforcing_g_fu_min       =   0.0000000000000E+00
(PID.TID 0000.0001) %MON g__extforcing_g_fu_mean      =   0.0000000000000E+00
(PID.TID 0000.0001) %MON g__extforcing_g_fu_sd        =   0.0000000000000E+00
(PID.TID 0000.0001) %MON g__extforcing_g_fu_del2      =   0.0000000000000E+00
(PID.TID 0000.0001) %MON g__extforcing_g_fv_max       =   0.0000000000000E+00
(PID.TID 0000.0001) %MON g__extforcing_g_fv_min       =   0.0000000000000E+00
(PID.TID 0000.0001) %MON g__extforcing_g_fv_mean      =   0.0000000000000E+00
(PID.TID 0000.0001) %MON g__extforcing_g_fv_sd        =   0.0000000000000E+00
(PID.TID 0000.0001) %MON g__extforcing_g_fv_del2      =   0.0000000000000E+00
(PID.TID 0000.0001) %MON g__g_vcfl_g_uvel_max         =   1.6465147500576E-04
(PID.TID 0000.0001) %MON g__g_vcfl_g_vvel_max         =   3.9529029988090E-05
(PID.TID 0000.0001) %MON g__g_vcfl_g_wvel_max         =   1.6624317315860E-04
(PID.TID 0000.0001) %MON g__g_vcfl_g_W_hf_max         =   3.9898361558065E-04
(PID.TID 0000.0001) // =======================================================
(PID.TID 0000.0001) // End MONITOR dynamic field statistics
(PID.TID 0000.0001) // =======================================================
 cg2d: Sum(rhs),rhsMax =   1.60475937110206E-12  1.14779074613185E-02
 cg2d: Sum(rhs),rhsMax =  -1.55738963392160E-12  1.02967139423326E+01
(PID.TID 0000.0001) // =======================================================
(PID.TID 0000.0001) // Begin MONITOR dynamic field statistics
(PID.TID 0000.0001) // =======================================================
(PID.TID 0000.0001) %MON g__time_tsnumber             =                    30
(PID.TID 0000.0001) %MON g__time_secondsf             =   1.2960000000000E+06
(PID.TID 0000.0001) %MON g__dynstat_g_eta_max         =   3.4215774989856E-03
(PID.TID 0000.0001) %MON g__dynstat_g_eta_min         =  -8.4956808496153E-05
(PID.TID 0000.0001) %MON g__dynstat_g_eta_mean        =  -1.1671910442485E-18
(PID.TID 0000.0001) %MON g__dynstat_g_eta_sd          =   4.3328442096216E-05
(PID.TID 0000.0001) %MON g__dynstat_g_eta_del2        =   1.6451923340598E-06
(PID.TID 0000.0001) %MON g__dynstat_g_uvel_max        =   1.2965100146671E-04
(PID.TID 0000.0001) %MON g__dynstat_g_uvel_min        =  -5.1487523675876E-04
(PID.TID 0000.0001) %MON g__dynstat_g_uvel_mean       =   3.6221022671423E-08
(PID.TID 0000.0001) %MON g__dynstat_g_uvel_sd         =   1.0094431135594E-06
(PID.TID 0000.0001) %MON g__dynstat_g_uvel_del2       =   6.0948661097376E-08
(PID.TID 0000.0001) %MON g__dynstat_g_vvel_max        =   3.7909576302115E-04
(PID.TID 0000.0001) %MON g__dynstat_g_vvel_min        =  -8.7073368633091E-05
(PID.TID 0000.0001) %MON g__dynstat_g_vvel_mean       =  -5.5475926490420E-09
(PID.TID 0000.0001) %MON g__dynstat_g_vvel_sd         =   8.7133556325141E-07
(PID.TID 0000.0001) %MON g__dynstat_g_vvel_del2       =   4.9522348172370E-08
(PID.TID 0000.0001) %MON g__dynstat_g_wvel_max        =   1.5523996641642E-07
(PID.TID 0000.0001) %MON g__dynstat_g_wvel_min        =  -2.2316128410572E-07
(PID.TID 0000.0001) %MON g__dynstat_g_wvel_mean       =  -8.1373759889420E-28
(PID.TID 0000.0001) %MON g__dynstat_g_wvel_sd         =   1.0961450354097E-09
(PID.TID 0000.0001) %MON g__dynstat_g_wvel_del2       =   1.3835108105886E-10
(PID.TID 0000.0001) %MON g__dynstat_g_theta_max       =   8.5514635182053E-01
(PID.TID 0000.0001) %MON g__dynstat_g_theta_min       =  -1.1187417041054E-04
(PID.TID 0000.0001) %MON g__dynstat_g_theta_mean      =   2.5312868393055E-06
(PID.TID 0000.0001) %MON g__dynstat_g_theta_sd        =   1.2527875537622E-03
(PID.TID 0000.0001) %MON g__dynstat_g_theta_del2      =   3.2627754784861E-05
(PID.TID 0000.0001) %MON g__dynstat_g_salt_max        =   4.4248470196894E-03
(PID.TID 0000.0001) %MON g__dynstat_g_salt_min        =  -3.4195884362361E-03
(PID.TID 0000.0001) %MON g__dynstat_g_salt_mean       =   2.3653698284026E-09
(PID.TID 0000.0001) %MON g__dynstat_g_salt_sd         =   8.3130151683146E-06
(PID.TID 0000.0001) %MON g__dynstat_g_salt_del2       =   4.8025628527201E-07
(PID.TID 0000.0001) %MON g__dynstat_g_sst_max         =   8.5514635182053E-01
(PID.TID 0000.0001) %MON g__dynstat_g_sst_min         =  -5.3897207690547E-05
(PID.TID 0000.0001) %MON g__dynstat_g_sst_mean        =   1.4755697037287E-04
(PID.TID 0000.0001) %MON g__dynstat_g_sst_sd          =   1.0770987369176E-02
(PID.TID 0000.0001) %MON g__dynstat_g_sst_del2        =   3.5471564288369E-04
(PID.TID 0000.0001) %MON g__dynstat_g_sss_max         =   4.4248470196894E-03
(PID.TID 0000.0001) %MON g__dynstat_g_sss_min         =  -3.4195884362361E-03
(PID.TID 0000.0001) %MON g__dynstat_g_sss_mean        =   2.3889891012067E-07
(PID.TID 0000.0001) %MON g__dynstat_g_sss_sd          =   7.0559870115989E-05
(PID.TID 0000.0001) %MON g__dynstat_g_sss_del2        =   4.6708491924682E-06
(PID.TID 0000.0001) %MON g__extforcing_g_qnet_max     =   0.0000000000000E+00
(PID.TID 0000.0001) %MON g__extforcing_g_qnet_min     =   0.0000000000000E+00
(PID.TID 0000.0001) %MON g__extforcing_g_qnet_mean    =   0.0000000000000E+00
(PID.TID 0000.0001) %MON g__extforcing_g_qnet_sd      =   0.0000000000000E+00
(PID.TID 0000.0001) %MON g__extforcing_g_qnet_del2    =   0.0000000000000E+00
(PID.TID 0000.0001) %MON g__extforcing_g_empmr_max    =   0.0000000000000E+00
(PID.TID 0000.0001) %MON g__extforcing_g_empmr_min    =   0.0000000000000E+00
(PID.TID 0000.0001) %MON g__extforcing_g_empmr_mean   =   0.0000000000000E+00
(PID.TID 0000.0001) %MON g__extforcing_g_empmr_sd     =   0.0000000000000E+00
(PID.TID 0000.0001) %MON g__extforcing_g_empmr_del2   =   0.0000000000000E+00
(PID.TID 0000.0001) %MON g__extforcing_g_fu_max       =   0.0000000000000E+00
(PID.TID 0000.0001) %MON g__extforcing_g_fu_min       =   0.0000000000000E+00
(PID.TID 0000.0001) %MON g__extforcing_g_fu_mean      =   0.0000000000000E+00
(PID.TID 0000.0001) %MON g__extforcing_g_fu_sd        =   0.0000000000000E+00
(PID.TID 0000.0001) %MON g__extforcing_g_fu_del2      =   0.0000000000000E+00
(PID.TID 0000.0001) %MON g__extforcing_g_fv_max       =   0.0000000000000E+00
(PID.TID 0000.0001) %MON g__extforcing_g_fv_min       =   0.0000000000000E+00
(PID.TID 0000.0001) %MON g__extforcing_g_fv_mean      =   0.0000000000000E+00
(PID.TID 0000.0001) %MON g__extforcing_g_fv_sd        =   0.0000000000000E+00
(PID.TID 0000.0001) %MON g__extforcing_g_fv_del2      =   0.0000000000000E+00
(PID.TID 0000.0001) %MON g__g_vcfl_g_uvel_max         =   1.8145581283732E-04
(PID.TID 0000.0001) %MON g__g_vcfl_g_vvel_max         =   3.6826113394970E-05
(PID.TID 0000.0001) %MON g__g_vcfl_g_wvel_max         =   1.6067612455612E-04
(PID.TID 0000.0001) %MON g__g_vcfl_g_W_hf_max         =   3.8562269893469E-04
(PID.TID 0000.0001) // =======================================================
(PID.TID 0000.0001) // End MONITOR dynamic field statistics
(PID.TID 0000.0001) // =======================================================
(PID.TID 0000.0001)  MDSREADFIELD: opening global file: trenberth_taux.bin
(PID.TID 0000.0001)  MDSREADFIELD: opening global file: trenberth_taux.bin
(PID.TID 0000.0001)  MDSREADFIELD: opening global file: trenberth_tauy.bin
(PID.TID 0000.0001)  MDSREADFIELD: opening global file: trenberth_tauy.bin
(PID.TID 0000.0001)  MDSREADFIELD: opening global file: ncep_qnet.bin
(PID.TID 0000.0001)  MDSREADFIELD: opening global file: ncep_qnet.bin
(PID.TID 0000.0001)  MDSREADFIELD: opening global file: lev_sst.bin
(PID.TID 0000.0001)  MDSREADFIELD: opening global file: lev_sst.bin
(PID.TID 0000.0001)  MDSREADFIELD: opening global file: lev_sss.bin
(PID.TID 0000.0001)  MDSREADFIELD: opening global file: lev_sss.bin
 myIter=  30
(PID.TID 0000.0001) // Model state written, timestep        30
(PID.TID 0000.0001) 
 cg2d: Sum(rhs),rhsMax =   1.60380041334280E-12  1.14621086134635E-02
 cg2d: Sum(rhs),rhsMax =  -1.33625749354493E-12  9.29740447830930E+00
(PID.TID 0000.0001) // =======================================================
(PID.TID 0000.0001) // Begin MONITOR dynamic field statistics
(PID.TID 0000.0001) // =======================================================
(PID.TID 0000.0001) %MON g__time_tsnumber             =                    31
(PID.TID 0000.0001) %MON g__time_secondsf             =   1.3392000000000E+06
(PID.TID 0000.0001) %MON g__dynstat_g_eta_max         =   3.4046431179600E-03
(PID.TID 0000.0001) %MON g__dynstat_g_eta_min         =  -6.3654640152626E-05
(PID.TID 0000.0001) %MON g__dynstat_g_eta_mean        =  -1.1729244849184E-18
(PID.TID 0000.0001) %MON g__dynstat_g_eta_sd          =   4.3048828973465E-05
(PID.TID 0000.0001) %MON g__dynstat_g_eta_del2        =   1.6512067864596E-06
(PID.TID 0000.0001) %MON g__dynstat_g_uvel_max        =   1.2932429565872E-04
(PID.TID 0000.0001) %MON g__dynstat_g_uvel_min        =  -5.4295091393286E-04
(PID.TID 0000.0001) %MON g__dynstat_g_uvel_mean       =   3.4802233277811E-08
(PID.TID 0000.0001) %MON g__dynstat_g_uvel_sd         =   1.0330095951245E-06
(PID.TID 0000.0001) %MON g__dynstat_g_uvel_del2       =   6.0408472484010E-08
(PID.TID 0000.0001) %MON g__dynstat_g_vvel_max        =   3.4829237984480E-04
(PID.TID 0000.0001) %MON g__dynstat_g_vvel_min        =  -8.8366642921607E-05
(PID.TID 0000.0001) %MON g__dynstat_g_vvel_mean       =  -5.5848212992656E-09
(PID.TID 0000.0001) %MON g__dynstat_g_vvel_sd         =   8.2186111807970E-07
(PID.TID 0000.0001) %MON g__dynstat_g_vvel_del2       =   4.9994539776457E-08
(PID.TID 0000.0001) %MON g__dynstat_g_wvel_max        =   1.6683311608911E-07
(PID.TID 0000.0001) %MON g__dynstat_g_wvel_min        =  -2.0530136653441E-07
(PID.TID 0000.0001) %MON g__dynstat_g_wvel_mean       =  -3.3394171891573E-27
(PID.TID 0000.0001) %MON g__dynstat_g_wvel_sd         =   1.0175545528633E-09
(PID.TID 0000.0001) %MON g__dynstat_g_wvel_del2       =   1.3274585519725E-10
(PID.TID 0000.0001) %MON g__dynstat_g_theta_max       =   8.5505375629746E-01
(PID.TID 0000.0001) %MON g__dynstat_g_theta_min       =  -1.1482363748878E-04
(PID.TID 0000.0001) %MON g__dynstat_g_theta_mean      =   2.5637565765285E-06
(PID.TID 0000.0001) %MON g__dynstat_g_theta_sd        =   1.2550136087201E-03
(PID.TID 0000.0001) %MON g__dynstat_g_theta_del2      =   3.2802447263011E-05
(PID.TID 0000.0001) %MON g__dynstat_g_salt_max        =   4.5887748450118E-03
(PID.TID 0000.0001) %MON g__dynstat_g_salt_min        =  -3.6074024988593E-03
(PID.TID 0000.0001) %MON g__dynstat_g_salt_mean       =   1.9251613907004E-09
(PID.TID 0000.0001) %MON g__dynstat_g_salt_sd         =   8.6298986134168E-06
(PID.TID 0000.0001) %MON g__dynstat_g_salt_del2       =   4.9183615547938E-07
(PID.TID 0000.0001) %MON g__dynstat_g_sst_max         =   8.5505375629746E-01
(PID.TID 0000.0001) %MON g__dynstat_g_sst_min         =  -5.1496213808504E-05
(PID.TID 0000.0001) %MON g__dynstat_g_sst_mean        =   1.4804880806917E-04
(PID.TID 0000.0001) %MON g__dynstat_g_sst_sd          =   1.0771523324172E-02
(PID.TID 0000.0001) %MON g__dynstat_g_sst_del2        =   3.5409936450288E-04
(PID.TID 0000.0001) %MON g__dynstat_g_sss_max         =   4.5887748450118E-03
(PID.TID 0000.0001) %MON g__dynstat_g_sss_min         =  -3.6074024988593E-03
(PID.TID 0000.0001) %MON g__dynstat_g_sss_mean        =   2.3990761787733E-07
(PID.TID 0000.0001) %MON g__dynstat_g_sss_sd          =   7.3640610453088E-05
(PID.TID 0000.0001) %MON g__dynstat_g_sss_del2        =   4.8577131277880E-06
(PID.TID 0000.0001) %MON g__extforcing_g_qnet_max     =   0.0000000000000E+00
(PID.TID 0000.0001) %MON g__extforcing_g_qnet_min     =   0.0000000000000E+00
(PID.TID 0000.0001) %MON g__extforcing_g_qnet_mean    =   0.0000000000000E+00
(PID.TID 0000.0001) %MON g__extforcing_g_qnet_sd      =   0.0000000000000E+00
(PID.TID 0000.0001) %MON g__extforcing_g_qnet_del2    =   0.0000000000000E+00
(PID.TID 0000.0001) %MON g__extforcing_g_empmr_max    =   0.0000000000000E+00
(PID.TID 0000.0001) %MON g__extforcing_g_empmr_min    =   0.0000000000000E+00
(PID.TID 0000.0001) %MON g__extforcing_g_empmr_mean   =   0.0000000000000E+00
(PID.TID 0000.0001) %MON g__extforcing_g_empmr_sd     =   0.0000000000000E+00
(PID.TID 0000.0001) %MON g__extforcing_g_empmr_del2   =   0.0000000000000E+00
(PID.TID 0000.0001) %MON g__extforcing_g_fu_max       =   0.0000000000000E+00
(PID.TID 0000.0001) %MON g__extforcing_g_fu_min       =   0.0000000000000E+00
(PID.TID 0000.0001) %MON g__extforcing_g_fu_mean      =   0.0000000000000E+00
(PID.TID 0000.0001) %MON g__extforcing_g_fu_sd        =   0.0000000000000E+00
(PID.TID 0000.0001) %MON g__extforcing_g_fu_del2      =   0.0000000000000E+00
(PID.TID 0000.0001) %MON g__extforcing_g_fv_max       =   0.0000000000000E+00
(PID.TID 0000.0001) %MON g__extforcing_g_fv_min       =   0.0000000000000E+00
(PID.TID 0000.0001) %MON g__extforcing_g_fv_mean      =   0.0000000000000E+00
(PID.TID 0000.0001) %MON g__extforcing_g_fv_sd        =   0.0000000000000E+00
(PID.TID 0000.0001) %MON g__extforcing_g_fv_del2      =   0.0000000000000E+00
(PID.TID 0000.0001) %MON g__g_vcfl_g_uvel_max         =   1.9135043285178E-04
(PID.TID 0000.0001) %MON g__g_vcfl_g_vvel_max         =   3.3833811732823E-05
(PID.TID 0000.0001) %MON g__g_vcfl_g_wvel_max         =   1.4755208539993E-04
(PID.TID 0000.0001) %MON g__g_vcfl_g_W_hf_max         =   3.5412500495983E-04
(PID.TID 0000.0001) // =======================================================
(PID.TID 0000.0001) // End MONITOR dynamic field statistics
(PID.TID 0000.0001) // =======================================================
 cg2d: Sum(rhs),rhsMax =   1.59493231094022E-12  1.15649130780561E-02
 cg2d: Sum(rhs),rhsMax =  -1.56610835411186E-12  9.11143504680528E+00
(PID.TID 0000.0001) // =======================================================
(PID.TID 0000.0001) // Begin MONITOR dynamic field statistics
(PID.TID 0000.0001) // =======================================================
(PID.TID 0000.0001) %MON g__time_tsnumber             =                    32
(PID.TID 0000.0001) %MON g__time_secondsf             =   1.3824000000000E+06
(PID.TID 0000.0001) %MON g__dynstat_g_eta_max         =   3.4269315586577E-03
(PID.TID 0000.0001) %MON g__dynstat_g_eta_min         =  -4.0712871576194E-05
(PID.TID 0000.0001) %MON g__dynstat_g_eta_mean        =  -1.2189531693005E-18
(PID.TID 0000.0001) %MON g__dynstat_g_eta_sd          =   4.3285414207256E-05
(PID.TID 0000.0001) %MON g__dynstat_g_eta_del2        =   1.6778761073030E-06
(PID.TID 0000.0001) %MON g__dynstat_g_uvel_max        =   1.2456868762752E-04
(PID.TID 0000.0001) %MON g__dynstat_g_uvel_min        =  -5.5078703280343E-04
(PID.TID 0000.0001) %MON g__dynstat_g_uvel_mean       =   3.3134180726885E-08
(PID.TID 0000.0001) %MON g__dynstat_g_uvel_sd         =   1.0275983102244E-06
(PID.TID 0000.0001) %MON g__dynstat_g_uvel_del2       =   5.9124319016794E-08
(PID.TID 0000.0001) %MON g__dynstat_g_vvel_max        =   3.1629460326849E-04
(PID.TID 0000.0001) %MON g__dynstat_g_vvel_min        =  -9.1770046051944E-05
(PID.TID 0000.0001) %MON g__dynstat_g_vvel_mean       =  -6.2859955338129E-09
(PID.TID 0000.0001) %MON g__dynstat_g_vvel_sd         =   7.8140466515802E-07
(PID.TID 0000.0001) %MON g__dynstat_g_vvel_del2       =   5.0711326761288E-08
(PID.TID 0000.0001) %MON g__dynstat_g_wvel_max        =   1.7534722583817E-07
(PID.TID 0000.0001) %MON g__dynstat_g_wvel_min        =  -1.9133544134767E-07
(PID.TID 0000.0001) %MON g__dynstat_g_wvel_mean       =  -1.6761497374387E-28
(PID.TID 0000.0001) %MON g__dynstat_g_wvel_sd         =   9.2715680375851E-10
(PID.TID 0000.0001) %MON g__dynstat_g_wvel_del2       =   1.2539624169644E-10
(PID.TID 0000.0001) %MON g__dynstat_g_theta_max       =   8.5715154963534E-01
(PID.TID 0000.0001) %MON g__dynstat_g_theta_min       =  -1.1771955955892E-04
(PID.TID 0000.0001) %MON g__dynstat_g_theta_mean      =   2.6079785348251E-06
(PID.TID 0000.0001) %MON g__dynstat_g_theta_sd        =   1.2610146935486E-03
(PID.TID 0000.0001) %MON g__dynstat_g_theta_del2      =   3.3100174446431E-05
(PID.TID 0000.0001) %MON g__dynstat_g_salt_max        =   4.7663322648761E-03
(PID.TID 0000.0001) %MON g__dynstat_g_salt_min        =  -3.8077270616782E-03
(PID.TID 0000.0001) %MON g__dynstat_g_salt_mean       =   1.4160721518502E-09
(PID.TID 0000.0001) %MON g__dynstat_g_salt_sd         =   8.9741853166972E-06
(PID.TID 0000.0001) %MON g__dynstat_g_salt_del2       =   5.0356744747363E-07
(PID.TID 0000.0001) %MON g__dynstat_g_sst_max         =   8.5715154963534E-01
(PID.TID 0000.0001) %MON g__dynstat_g_sst_min         =  -5.1227863805198E-05
(PID.TID 0000.0001) %MON g__dynstat_g_sst_mean        =   1.4898529685756E-04
(PID.TID 0000.0001) %MON g__dynstat_g_sst_sd          =   1.0799877954162E-02
(PID.TID 0000.0001) %MON g__dynstat_g_sst_del2        =   3.5433438974583E-04
(PID.TID 0000.0001) %MON g__dynstat_g_sss_max         =   4.7663322648761E-03
(PID.TID 0000.0001) %MON g__dynstat_g_sss_min         =  -3.8077270616782E-03
(PID.TID 0000.0001) %MON g__dynstat_g_sss_mean        =   2.4083221341160E-07
(PID.TID 0000.0001) %MON g__dynstat_g_sss_sd          =   7.6959125705744E-05
(PID.TID 0000.0001) %MON g__dynstat_g_sss_del2        =   5.0563736181058E-06
(PID.TID 0000.0001) %MON g__extforcing_g_qnet_max     =   0.0000000000000E+00
(PID.TID 0000.0001) %MON g__extforcing_g_qnet_min     =   0.0000000000000E+00
(PID.TID 0000.0001) %MON g__extforcing_g_qnet_mean    =   0.0000000000000E+00
(PID.TID 0000.0001) %MON g__extforcing_g_qnet_sd      =   0.0000000000000E+00
(PID.TID 0000.0001) %MON g__extforcing_g_qnet_del2    =   0.0000000000000E+00
(PID.TID 0000.0001) %MON g__extforcing_g_empmr_max    =   0.0000000000000E+00
(PID.TID 0000.0001) %MON g__extforcing_g_empmr_min    =   0.0000000000000E+00
(PID.TID 0000.0001) %MON g__extforcing_g_empmr_mean   =   0.0000000000000E+00
(PID.TID 0000.0001) %MON g__extforcing_g_empmr_sd     =   0.0000000000000E+00
(PID.TID 0000.0001) %MON g__extforcing_g_empmr_del2   =   0.0000000000000E+00
(PID.TID 0000.0001) %MON g__extforcing_g_fu_max       =   0.0000000000000E+00
(PID.TID 0000.0001) %MON g__extforcing_g_fu_min       =   0.0000000000000E+00
(PID.TID 0000.0001) %MON g__extforcing_g_fu_mean      =   0.0000000000000E+00
(PID.TID 0000.0001) %MON g__extforcing_g_fu_sd        =   0.0000000000000E+00
(PID.TID 0000.0001) %MON g__extforcing_g_fu_del2      =   0.0000000000000E+00
(PID.TID 0000.0001) %MON g__extforcing_g_fv_max       =   0.0000000000000E+00
(PID.TID 0000.0001) %MON g__extforcing_g_fv_min       =   0.0000000000000E+00
(PID.TID 0000.0001) %MON g__extforcing_g_fv_mean      =   0.0000000000000E+00
(PID.TID 0000.0001) %MON g__extforcing_g_fv_sd        =   0.0000000000000E+00
(PID.TID 0000.0001) %MON g__extforcing_g_fv_del2      =   0.0000000000000E+00
(PID.TID 0000.0001) %MON g__g_vcfl_g_uvel_max         =   1.9411209085674E-04
(PID.TID 0000.0001) %MON g__g_vcfl_g_vvel_max         =   3.0725484329754E-05
(PID.TID 0000.0001) %MON g__g_vcfl_g_wvel_max         =   1.2841042935009E-04
(PID.TID 0000.0001) %MON g__g_vcfl_g_W_hf_max         =   3.0818503044021E-04
(PID.TID 0000.0001) // =======================================================
(PID.TID 0000.0001) // End MONITOR dynamic field statistics
(PID.TID 0000.0001) // =======================================================
 cg2d: Sum(rhs),rhsMax =   1.62867128920152E-12  1.17723455153488E-02
 cg2d: Sum(rhs),rhsMax =  -1.63791202822949E-12  9.23484312292801E+00
(PID.TID 0000.0001) // =======================================================
(PID.TID 0000.0001) // Begin MONITOR dynamic field statistics
(PID.TID 0000.0001) // =======================================================
(PID.TID 0000.0001) %MON g__time_tsnumber             =                    33
(PID.TID 0000.0001) %MON g__time_secondsf             =   1.4256000000000E+06
(PID.TID 0000.0001) %MON g__dynstat_g_eta_max         =   3.4851790636645E-03
(PID.TID 0000.0001) %MON g__dynstat_g_eta_min         =  -2.8846832839657E-05
(PID.TID 0000.0001) %MON g__dynstat_g_eta_mean        =  -1.2287712188264E-18
(PID.TID 0000.0001) %MON g__dynstat_g_eta_sd          =   4.3991829269685E-05
(PID.TID 0000.0001) %MON g__dynstat_g_eta_del2        =   1.7160567114921E-06
(PID.TID 0000.0001) %MON g__dynstat_g_uvel_max        =   1.1596401818650E-04
(PID.TID 0000.0001) %MON g__dynstat_g_uvel_min        =  -5.3874757705903E-04
(PID.TID 0000.0001) %MON g__dynstat_g_uvel_mean       =   3.1388787727792E-08
(PID.TID 0000.0001) %MON g__dynstat_g_uvel_sd         =   9.9465369810840E-07
(PID.TID 0000.0001) %MON g__dynstat_g_uvel_del2       =   5.7133155083197E-08
(PID.TID 0000.0001) %MON g__dynstat_g_vvel_max        =   2.8496260801186E-04
(PID.TID 0000.0001) %MON g__dynstat_g_vvel_min        =  -9.6581389611808E-05
(PID.TID 0000.0001) %MON g__dynstat_g_vvel_mean       =  -7.6268345828884E-09
(PID.TID 0000.0001) %MON g__dynstat_g_vvel_sd         =   7.5388476213285E-07
(PID.TID 0000.0001) %MON g__dynstat_g_vvel_del2       =   5.1598543961664E-08
(PID.TID 0000.0001) %MON g__dynstat_g_wvel_max        =   1.7969684309440E-07
(PID.TID 0000.0001) %MON g__dynstat_g_wvel_min        =  -1.6948196838251E-07
(PID.TID 0000.0001) %MON g__dynstat_g_wvel_mean       =   5.5653716431766E-27
(PID.TID 0000.0001) %MON g__dynstat_g_wvel_sd         =   8.5230054434990E-10
(PID.TID 0000.0001) %MON g__dynstat_g_wvel_del2       =   1.1746428455955E-10
(PID.TID 0000.0001) %MON g__dynstat_g_theta_max       =   8.6058223165696E-01
(PID.TID 0000.0001) %MON g__dynstat_g_theta_min       =  -1.2071126069109E-04
(PID.TID 0000.0001) %MON g__dynstat_g_theta_mean      =   2.6599784540051E-06
(PID.TID 0000.0001) %MON g__dynstat_g_theta_sd        =   1.2694359742461E-03
(PID.TID 0000.0001) %MON g__dynstat_g_theta_del2      =   3.3474247517092E-05
(PID.TID 0000.0001) %MON g__dynstat_g_salt_max        =   4.9538911238718E-03
(PID.TID 0000.0001) %MON g__dynstat_g_salt_min        =  -4.0150100562141E-03
(PID.TID 0000.0001) %MON g__dynstat_g_salt_mean       =   8.6454906722400E-10
(PID.TID 0000.0001) %MON g__dynstat_g_salt_sd         =   9.3392150212041E-06
(PID.TID 0000.0001) %MON g__dynstat_g_salt_del2       =   5.1535495107675E-07
(PID.TID 0000.0001) %MON g__dynstat_g_sst_max         =   8.6058223165696E-01
(PID.TID 0000.0001) %MON g__dynstat_g_sst_min         =  -5.0304693116505E-05
(PID.TID 0000.0001) %MON g__dynstat_g_sst_mean        =   1.5020276355588E-04
(PID.TID 0000.0001) %MON g__dynstat_g_sst_sd          =   1.0845214724404E-02
(PID.TID 0000.0001) %MON g__dynstat_g_sst_del2        =   3.5507886504176E-04
(PID.TID 0000.0001) %MON g__dynstat_g_sss_max         =   4.9538911238718E-03
(PID.TID 0000.0001) %MON g__dynstat_g_sss_min         =  -4.0150100562141E-03
(PID.TID 0000.0001) %MON g__dynstat_g_sss_mean        =   2.4203141509701E-07
(PID.TID 0000.0001) %MON g__dynstat_g_sss_sd          =   8.0436518990083E-05
(PID.TID 0000.0001) %MON g__dynstat_g_sss_del2        =   5.2628816263175E-06
(PID.TID 0000.0001) %MON g__extforcing_g_qnet_max     =   0.0000000000000E+00
(PID.TID 0000.0001) %MON g__extforcing_g_qnet_min     =   0.0000000000000E+00
(PID.TID 0000.0001) %MON g__extforcing_g_qnet_mean    =   0.0000000000000E+00
(PID.TID 0000.0001) %MON g__extforcing_g_qnet_sd      =   0.0000000000000E+00
(PID.TID 0000.0001) %MON g__extforcing_g_qnet_del2    =   0.0000000000000E+00
(PID.TID 0000.0001) %MON g__extforcing_g_empmr_max    =   0.0000000000000E+00
(PID.TID 0000.0001) %MON g__extforcing_g_empmr_min    =   0.0000000000000E+00
(PID.TID 0000.0001) %MON g__extforcing_g_empmr_mean   =   0.0000000000000E+00
(PID.TID 0000.0001) %MON g__extforcing_g_empmr_sd     =   0.0000000000000E+00
(PID.TID 0000.0001) %MON g__extforcing_g_empmr_del2   =   0.0000000000000E+00
(PID.TID 0000.0001) %MON g__extforcing_g_fu_max       =   0.0000000000000E+00
(PID.TID 0000.0001) %MON g__extforcing_g_fu_min       =   0.0000000000000E+00
(PID.TID 0000.0001) %MON g__extforcing_g_fu_mean      =   0.0000000000000E+00
(PID.TID 0000.0001) %MON g__extforcing_g_fu_sd        =   0.0000000000000E+00
(PID.TID 0000.0001) %MON g__extforcing_g_fu_del2      =   0.0000000000000E+00
(PID.TID 0000.0001) %MON g__extforcing_g_fv_max       =   0.0000000000000E+00
(PID.TID 0000.0001) %MON g__extforcing_g_fv_min       =   0.0000000000000E+00
(PID.TID 0000.0001) %MON g__extforcing_g_fv_mean      =   0.0000000000000E+00
(PID.TID 0000.0001) %MON g__extforcing_g_fv_sd        =   0.0000000000000E+00
(PID.TID 0000.0001) %MON g__extforcing_g_fv_del2      =   0.0000000000000E+00
(PID.TID 0000.0001) %MON g__g_vcfl_g_uvel_max         =   1.8986906444519E-04
(PID.TID 0000.0001) %MON g__g_vcfl_g_vvel_max         =   2.7681832242967E-05
(PID.TID 0000.0001) %MON g__g_vcfl_g_wvel_max         =   1.1956666051822E-04
(PID.TID 0000.0001) %MON g__g_vcfl_g_W_hf_max         =   2.8695998524373E-04
(PID.TID 0000.0001) // =======================================================
(PID.TID 0000.0001) // End MONITOR dynamic field statistics
(PID.TID 0000.0001) // =======================================================
 cg2d: Sum(rhs),rhsMax =   1.60346291226545E-12  1.20654866616285E-02
 cg2d: Sum(rhs),rhsMax =  -1.47438311559611E-12  9.27184087685190E+00
(PID.TID 0000.0001) // =======================================================
(PID.TID 0000.0001) // Begin MONITOR dynamic field statistics
(PID.TID 0000.0001) // =======================================================
(PID.TID 0000.0001) %MON g__time_tsnumber             =                    34
(PID.TID 0000.0001) %MON g__time_secondsf             =   1.4688000000000E+06
(PID.TID 0000.0001) %MON g__dynstat_g_eta_max         =   3.5739348900709E-03
(PID.TID 0000.0001) %MON g__dynstat_g_eta_min         =  -2.8119119057047E-05
(PID.TID 0000.0001) %MON g__dynstat_g_eta_mean        =  -1.2269344987880E-18
(PID.TID 0000.0001) %MON g__dynstat_g_eta_sd          =   4.5094241846542E-05
(PID.TID 0000.0001) %MON g__dynstat_g_eta_del2        =   1.7542821834136E-06
(PID.TID 0000.0001) %MON g__dynstat_g_uvel_max        =   1.0413716001411E-04
(PID.TID 0000.0001) %MON g__dynstat_g_uvel_min        =  -5.0809324372700E-04
(PID.TID 0000.0001) %MON g__dynstat_g_uvel_mean       =   2.9750662884092E-08
(PID.TID 0000.0001) %MON g__dynstat_g_uvel_sd         =   9.3634508034302E-07
(PID.TID 0000.0001) %MON g__dynstat_g_uvel_del2       =   5.5342816787801E-08
(PID.TID 0000.0001) %MON g__dynstat_g_vvel_max        =   2.5607222447247E-04
(PID.TID 0000.0001) %MON g__dynstat_g_vvel_min        =  -1.0205454055922E-04
(PID.TID 0000.0001) %MON g__dynstat_g_vvel_mean       =  -9.5073540771852E-09
(PID.TID 0000.0001) %MON g__dynstat_g_vvel_sd         =   7.4112146292906E-07
(PID.TID 0000.0001) %MON g__dynstat_g_vvel_del2       =   5.2581187138317E-08
(PID.TID 0000.0001) %MON g__dynstat_g_wvel_max        =   1.7900461823697E-07
(PID.TID 0000.0001) %MON g__dynstat_g_wvel_min        =  -1.4151264773708E-07
(PID.TID 0000.0001) %MON g__dynstat_g_wvel_mean       =  -6.4146079011526E-27
(PID.TID 0000.0001) %MON g__dynstat_g_wvel_sd         =   8.0834087657608E-10
(PID.TID 0000.0001) %MON g__dynstat_g_wvel_del2       =   1.1542162492440E-10
(PID.TID 0000.0001) %MON g__dynstat_g_theta_max       =   8.6461131560550E-01
(PID.TID 0000.0001) %MON g__dynstat_g_theta_min       =  -1.2386712531579E-04
(PID.TID 0000.0001) %MON g__dynstat_g_theta_mean      =   2.7162572488375E-06
(PID.TID 0000.0001) %MON g__dynstat_g_theta_sd        =   1.2790924773058E-03
(PID.TID 0000.0001) %MON g__dynstat_g_theta_del2      =   3.3884090218431E-05
(PID.TID 0000.0001) %MON g__dynstat_g_salt_max        =   5.1475660142276E-03
(PID.TID 0000.0001) %MON g__dynstat_g_salt_min        =  -4.2241002009428E-03
(PID.TID 0000.0001) %MON g__dynstat_g_salt_mean       =   3.0474478993370E-10
(PID.TID 0000.0001) %MON g__dynstat_g_salt_sd         =   9.7174888206769E-06
(PID.TID 0000.0001) %MON g__dynstat_g_salt_del2       =   5.2694780447588E-07
(PID.TID 0000.0001) %MON g__dynstat_g_sst_max         =   8.6461131560550E-01
(PID.TID 0000.0001) %MON g__dynstat_g_sst_min         =  -4.9424828122375E-05
(PID.TID 0000.0001) %MON g__dynstat_g_sst_mean        =   1.5155666187216E-04
(PID.TID 0000.0001) %MON g__dynstat_g_sst_sd          =   1.0898241030898E-02
(PID.TID 0000.0001) %MON g__dynstat_g_sst_del2        =   3.5604500846008E-04
(PID.TID 0000.0001) %MON g__dynstat_g_sss_max         =   5.1475660142276E-03
(PID.TID 0000.0001) %MON g__dynstat_g_sss_min         =  -4.2241002009428E-03
(PID.TID 0000.0001) %MON g__dynstat_g_sss_mean        =   2.4372951485840E-07
(PID.TID 0000.0001) %MON g__dynstat_g_sss_sd          =   8.3993643276105E-05
(PID.TID 0000.0001) %MON g__dynstat_g_sss_del2        =   5.4724237896035E-06
(PID.TID 0000.0001) %MON g__extforcing_g_qnet_max     =   0.0000000000000E+00
(PID.TID 0000.0001) %MON g__extforcing_g_qnet_min     =   0.0000000000000E+00
(PID.TID 0000.0001) %MON g__extforcing_g_qnet_mean    =   0.0000000000000E+00
(PID.TID 0000.0001) %MON g__extforcing_g_qnet_sd      =   0.0000000000000E+00
(PID.TID 0000.0001) %MON g__extforcing_g_qnet_del2    =   0.0000000000000E+00
(PID.TID 0000.0001) %MON g__extforcing_g_empmr_max    =   0.0000000000000E+00
(PID.TID 0000.0001) %MON g__extforcing_g_empmr_min    =   0.0000000000000E+00
(PID.TID 0000.0001) %MON g__extforcing_g_empmr_mean   =   0.0000000000000E+00
(PID.TID 0000.0001) %MON g__extforcing_g_empmr_sd     =   0.0000000000000E+00
(PID.TID 0000.0001) %MON g__extforcing_g_empmr_del2   =   0.0000000000000E+00
(PID.TID 0000.0001) %MON g__extforcing_g_fu_max       =   0.0000000000000E+00
(PID.TID 0000.0001) %MON g__extforcing_g_fu_min       =   0.0000000000000E+00
(PID.TID 0000.0001) %MON g__extforcing_g_fu_mean      =   0.0000000000000E+00
(PID.TID 0000.0001) %MON g__extforcing_g_fu_sd        =   0.0000000000000E+00
(PID.TID 0000.0001) %MON g__extforcing_g_fu_del2      =   0.0000000000000E+00
(PID.TID 0000.0001) %MON g__extforcing_g_fv_max       =   0.0000000000000E+00
(PID.TID 0000.0001) %MON g__extforcing_g_fv_min       =   0.0000000000000E+00
(PID.TID 0000.0001) %MON g__extforcing_g_fv_mean      =   0.0000000000000E+00
(PID.TID 0000.0001) %MON g__extforcing_g_fv_sd        =   0.0000000000000E+00
(PID.TID 0000.0001) %MON g__extforcing_g_fv_del2      =   0.0000000000000E+00
(PID.TID 0000.0001) %MON g__g_vcfl_g_uvel_max         =   1.7906565698912E-04
(PID.TID 0000.0001) %MON g__g_vcfl_g_vvel_max         =   2.4875363155138E-05
(PID.TID 0000.0001) %MON g__g_vcfl_g_wvel_max         =   1.2780839002514E-04
(PID.TID 0000.0001) %MON g__g_vcfl_g_W_hf_max         =   2.9233902461046E-04
(PID.TID 0000.0001) // =======================================================
(PID.TID 0000.0001) // End MONITOR dynamic field statistics
(PID.TID 0000.0001) // =======================================================
 cg2d: Sum(rhs),rhsMax =   1.55366571687601E-12  1.24219494897721E-02
 cg2d: Sum(rhs),rhsMax =  -1.16397169680482E-12  9.21972070819474E+00
(PID.TID 0000.0001) // =======================================================
(PID.TID 0000.0001) // Begin MONITOR dynamic field statistics
(PID.TID 0000.0001) // =======================================================
(PID.TID 0000.0001) %MON g__time_tsnumber             =                    35
(PID.TID 0000.0001) %MON g__time_secondsf             =   1.5120000000000E+06
(PID.TID 0000.0001) %MON g__dynstat_g_eta_max         =   3.6860983610849E-03
(PID.TID 0000.0001) %MON g__dynstat_g_eta_min         =  -2.9710561046040E-05
(PID.TID 0000.0001) %MON g__dynstat_g_eta_mean        =  -1.2295823797628E-18
(PID.TID 0000.0001) %MON g__dynstat_g_eta_sd          =   4.6502059796379E-05
(PID.TID 0000.0001) %MON g__dynstat_g_eta_del2        =   1.7936992010175E-06
(PID.TID 0000.0001) %MON g__dynstat_g_uvel_max        =   8.9788034462726E-05
(PID.TID 0000.0001) %MON g__dynstat_g_uvel_min        =  -4.6079696110125E-04
(PID.TID 0000.0001) %MON g__dynstat_g_uvel_mean       =   2.8392830839723E-08
(PID.TID 0000.0001) %MON g__dynstat_g_uvel_sd         =   8.5548347605927E-07
(PID.TID 0000.0001) %MON g__dynstat_g_uvel_del2       =   5.4324223392543E-08
(PID.TID 0000.0001) %MON g__dynstat_g_vvel_max        =   2.3118267339314E-04
(PID.TID 0000.0001) %MON g__dynstat_g_vvel_min        =  -1.0749078259847E-04
(PID.TID 0000.0001) %MON g__dynstat_g_vvel_mean       =  -1.1767768359383E-08
(PID.TID 0000.0001) %MON g__dynstat_g_vvel_sd         =   7.4193995389938E-07
(PID.TID 0000.0001) %MON g__dynstat_g_vvel_del2       =   5.3616865485142E-08
(PID.TID 0000.0001) %MON g__dynstat_g_wvel_max        =   1.7282875087196E-07
(PID.TID 0000.0001) %MON g__dynstat_g_wvel_min        =  -1.0925478867172E-07
(PID.TID 0000.0001) %MON g__dynstat_g_wvel_mean       =   5.6236312514304E-27
(PID.TID 0000.0001) %MON g__dynstat_g_wvel_sd         =   7.9124466293712E-10
(PID.TID 0000.0001) %MON g__dynstat_g_wvel_del2       =   1.1496476999062E-10
(PID.TID 0000.0001) %MON g__dynstat_g_theta_max       =   8.6865654856846E-01
(PID.TID 0000.0001) %MON g__dynstat_g_theta_min       =  -1.2718820601178E-04
(PID.TID 0000.0001) %MON g__dynstat_g_theta_mean      =   2.7739428555914E-06
(PID.TID 0000.0001) %MON g__dynstat_g_theta_sd        =   1.2890197579222E-03
(PID.TID 0000.0001) %MON g__dynstat_g_theta_del2      =   3.4282809065064E-05
(PID.TID 0000.0001) %MON g__dynstat_g_salt_max        =   5.3435101461438E-03
(PID.TID 0000.0001) %MON g__dynstat_g_salt_min        =  -4.4305764995392E-03
(PID.TID 0000.0001) %MON g__dynstat_g_salt_mean       =  -2.2558266789649E-10
(PID.TID 0000.0001) %MON g__dynstat_g_salt_sd         =   1.0101343096446E-05
(PID.TID 0000.0001) %MON g__dynstat_g_salt_del2       =   5.3844472349491E-07
(PID.TID 0000.0001) %MON g__dynstat_g_sst_max         =   8.6865654856846E-01
(PID.TID 0000.0001) %MON g__dynstat_g_sst_min         =  -4.9275723371093E-05
(PID.TID 0000.0001) %MON g__dynstat_g_sst_mean        =   1.5292912605201E-04
(PID.TID 0000.0001) %MON g__dynstat_g_sst_sd          =   1.0951580181500E-02
(PID.TID 0000.0001) %MON g__dynstat_g_sst_del2        =   3.5701534752065E-04
(PID.TID 0000.0001) %MON g__dynstat_g_sss_max         =   5.3435101461438E-03
(PID.TID 0000.0001) %MON g__dynstat_g_sss_min         =  -4.4305764995392E-03
(PID.TID 0000.0001) %MON g__dynstat_g_sss_mean        =   2.4627148950597E-07
(PID.TID 0000.0001) %MON g__dynstat_g_sss_sd          =   8.7556997187464E-05
(PID.TID 0000.0001) %MON g__dynstat_g_sss_del2        =   5.6825497526636E-06
(PID.TID 0000.0001) %MON g__extforcing_g_qnet_max     =   0.0000000000000E+00
(PID.TID 0000.0001) %MON g__extforcing_g_qnet_min     =   0.0000000000000E+00
(PID.TID 0000.0001) %MON g__extforcing_g_qnet_mean    =   0.0000000000000E+00
(PID.TID 0000.0001) %MON g__extforcing_g_qnet_sd      =   0.0000000000000E+00
(PID.TID 0000.0001) %MON g__extforcing_g_qnet_del2    =   0.0000000000000E+00
(PID.TID 0000.0001) %MON g__extforcing_g_empmr_max    =   0.0000000000000E+00
(PID.TID 0000.0001) %MON g__extforcing_g_empmr_min    =   0.0000000000000E+00
(PID.TID 0000.0001) %MON g__extforcing_g_empmr_mean   =   0.0000000000000E+00
(PID.TID 0000.0001) %MON g__extforcing_g_empmr_sd     =   0.0000000000000E+00
(PID.TID 0000.0001) %MON g__extforcing_g_empmr_del2   =   0.0000000000000E+00
(PID.TID 0000.0001) %MON g__extforcing_g_fu_max       =   0.0000000000000E+00
(PID.TID 0000.0001) %MON g__extforcing_g_fu_min       =   0.0000000000000E+00
(PID.TID 0000.0001) %MON g__extforcing_g_fu_mean      =   0.0000000000000E+00
(PID.TID 0000.0001) %MON g__extforcing_g_fu_sd        =   0.0000000000000E+00
(PID.TID 0000.0001) %MON g__extforcing_g_fu_del2      =   0.0000000000000E+00
(PID.TID 0000.0001) %MON g__extforcing_g_fv_max       =   0.0000000000000E+00
(PID.TID 0000.0001) %MON g__extforcing_g_fv_min       =   0.0000000000000E+00
(PID.TID 0000.0001) %MON g__extforcing_g_fv_mean      =   0.0000000000000E+00
(PID.TID 0000.0001) %MON g__extforcing_g_fv_sd        =   0.0000000000000E+00
(PID.TID 0000.0001) %MON g__extforcing_g_fv_del2      =   0.0000000000000E+00
(PID.TID 0000.0001) %MON g__g_vcfl_g_uvel_max         =   1.6239718121999E-04
(PID.TID 0000.0001) %MON g__g_vcfl_g_vvel_max         =   2.2457542857985E-05
(PID.TID 0000.0001) %MON g__g_vcfl_g_wvel_max         =   1.6151539826017E-04
(PID.TID 0000.0001) %MON g__g_vcfl_g_W_hf_max         =   2.8945905339765E-04
(PID.TID 0000.0001) // =======================================================
(PID.TID 0000.0001) // End MONITOR dynamic field statistics
(PID.TID 0000.0001) // =======================================================
 cg2d: Sum(rhs),rhsMax =   1.51073868290458E-12  1.28175591986583E-02
 cg2d: Sum(rhs),rhsMax =  -1.27080290734938E-12  9.07797514894403E+00
(PID.TID 0000.0001) // =======================================================
(PID.TID 0000.0001) // Begin MONITOR dynamic field statistics
(PID.TID 0000.0001) // =======================================================
(PID.TID 0000.0001) %MON g__time_tsnumber             =                    36
(PID.TID 0000.0001) %MON g__time_secondsf             =   1.5552000000000E+06
(PID.TID 0000.0001) %MON g__dynstat_g_eta_max         =   3.8135646565112E-03
(PID.TID 0000.0001) %MON g__dynstat_g_eta_min         =  -3.3661106282265E-05
(PID.TID 0000.0001) %MON g__dynstat_g_eta_mean        =  -1.2029939336570E-18
(PID.TID 0000.0001) %MON g__dynstat_g_eta_sd          =   4.8115456658072E-05
(PID.TID 0000.0001) %MON g__dynstat_g_eta_del2        =   1.8269854577824E-06
(PID.TID 0000.0001) %MON g__dynstat_g_uvel_max        =   7.3633164937797E-05
(PID.TID 0000.0001) %MON g__dynstat_g_uvel_min        =  -3.9938439348258E-04
(PID.TID 0000.0001) %MON g__dynstat_g_uvel_mean       =   2.7456113044947E-08
(PID.TID 0000.0001) %MON g__dynstat_g_uvel_sd         =   7.5557615192535E-07
(PID.TID 0000.0001) %MON g__dynstat_g_uvel_del2       =   5.3871258622958E-08
(PID.TID 0000.0001) %MON g__dynstat_g_vvel_max        =   2.1153479098901E-04
(PID.TID 0000.0001) %MON g__dynstat_g_vvel_min        =  -1.1235376613280E-04
(PID.TID 0000.0001) %MON g__dynstat_g_vvel_mean       =  -1.4211493275821E-08
(PID.TID 0000.0001) %MON g__dynstat_g_vvel_sd         =   7.5283198897865E-07
(PID.TID 0000.0001) %MON g__dynstat_g_vvel_del2       =   5.4605392573059E-08
(PID.TID 0000.0001) %MON g__dynstat_g_wvel_max        =   1.6120360092448E-07
(PID.TID 0000.0001) %MON g__dynstat_g_wvel_min        =  -7.4444402878890E-08
(PID.TID 0000.0001) %MON g__dynstat_g_wvel_mean       =   2.1411164799901E-28
(PID.TID 0000.0001) %MON g__dynstat_g_wvel_sd         =   7.8284471818069E-10
(PID.TID 0000.0001) %MON g__dynstat_g_wvel_del2       =   1.1405574371617E-10
(PID.TID 0000.0001) %MON g__dynstat_g_theta_max       =   8.7228848955319E-01
(PID.TID 0000.0001) %MON g__dynstat_g_theta_min       =  -1.3061055378415E-04
(PID.TID 0000.0001) %MON g__dynstat_g_theta_mean      =   2.8308148474882E-06
(PID.TID 0000.0001) %MON g__dynstat_g_theta_sd        =   1.2984841024469E-03
(PID.TID 0000.0001) %MON g__dynstat_g_theta_del2      =   3.4679860101647E-05
(PID.TID 0000.0001) %MON g__dynstat_g_salt_max        =   5.5381478002770E-03
(PID.TID 0000.0001) %MON g__dynstat_g_salt_min        =  -4.6309238080169E-03
(PID.TID 0000.0001) %MON g__dynstat_g_salt_mean       =  -6.8988023133830E-10
(PID.TID 0000.0001) %MON g__dynstat_g_salt_sd         =   1.0483562807605E-05
(PID.TID 0000.0001) %MON g__dynstat_g_salt_del2       =   5.4989759468825E-07
(PID.TID 0000.0001) %MON g__dynstat_g_sst_max         =   8.7228848955319E-01
(PID.TID 0000.0001) %MON g__dynstat_g_sst_min         =  -5.0430457690397E-05
(PID.TID 0000.0001) %MON g__dynstat_g_sst_mean        =   1.5422959838877E-04
(PID.TID 0000.0001) %MON g__dynstat_g_sst_sd          =   1.0999780991756E-02
(PID.TID 0000.0001) %MON g__dynstat_g_sst_del2        =   3.5782670110776E-04
(PID.TID 0000.0001) %MON g__dynstat_g_sss_max         =   5.5381478002770E-03
(PID.TID 0000.0001) %MON g__dynstat_g_sss_min         =  -4.6309238080169E-03
(PID.TID 0000.0001) %MON g__dynstat_g_sss_mean        =   2.4997266286290E-07
(PID.TID 0000.0001) %MON g__dynstat_g_sss_sd          =   9.1062732321849E-05
(PID.TID 0000.0001) %MON g__dynstat_g_sss_del2        =   5.8890318865254E-06
(PID.TID 0000.0001) %MON g__extforcing_g_qnet_max     =   0.0000000000000E+00
(PID.TID 0000.0001) %MON g__extforcing_g_qnet_min     =   0.0000000000000E+00
(PID.TID 0000.0001) %MON g__extforcing_g_qnet_mean    =   0.0000000000000E+00
(PID.TID 0000.0001) %MON g__extforcing_g_qnet_sd      =   0.0000000000000E+00
(PID.TID 0000.0001) %MON g__extforcing_g_qnet_del2    =   0.0000000000000E+00
(PID.TID 0000.0001) %MON g__extforcing_g_empmr_max    =   0.0000000000000E+00
(PID.TID 0000.0001) %MON g__extforcing_g_empmr_min    =   0.0000000000000E+00
(PID.TID 0000.0001) %MON g__extforcing_g_empmr_mean   =   0.0000000000000E+00
(PID.TID 0000.0001) %MON g__extforcing_g_empmr_sd     =   0.0000000000000E+00
(PID.TID 0000.0001) %MON g__extforcing_g_empmr_del2   =   0.0000000000000E+00
(PID.TID 0000.0001) %MON g__extforcing_g_fu_max       =   0.0000000000000E+00
(PID.TID 0000.0001) %MON g__extforcing_g_fu_min       =   0.0000000000000E+00
(PID.TID 0000.0001) %MON g__extforcing_g_fu_mean      =   0.0000000000000E+00
(PID.TID 0000.0001) %MON g__extforcing_g_fu_sd        =   0.0000000000000E+00
(PID.TID 0000.0001) %MON g__extforcing_g_fu_del2      =   0.0000000000000E+00
(PID.TID 0000.0001) %MON g__extforcing_g_fv_max       =   0.0000000000000E+00
(PID.TID 0000.0001) %MON g__extforcing_g_fv_min       =   0.0000000000000E+00
(PID.TID 0000.0001) %MON g__extforcing_g_fv_mean      =   0.0000000000000E+00
(PID.TID 0000.0001) %MON g__extforcing_g_fv_sd        =   0.0000000000000E+00
(PID.TID 0000.0001) %MON g__extforcing_g_fv_del2      =   0.0000000000000E+00
(PID.TID 0000.0001) %MON g__g_vcfl_g_uvel_max         =   1.4075374883076E-04
(PID.TID 0000.0001) %MON g__g_vcfl_g_vvel_max         =   2.0548908639498E-05
(PID.TID 0000.0001) %MON g__g_vcfl_g_wvel_max         =   1.8355146541382E-04
(PID.TID 0000.0001) %MON g__g_vcfl_g_W_hf_max         =   2.7756084196857E-04
(PID.TID 0000.0001) // =======================================================
(PID.TID 0000.0001) // End MONITOR dynamic field statistics
(PID.TID 0000.0001) // =======================================================
 cg2d: Sum(rhs),rhsMax =   1.43082965238468E-12  1.32279568722433E-02
 cg2d: Sum(rhs),rhsMax =  -1.30646882201546E-12  8.84823931929403E+00
(PID.TID 0000.0001) // =======================================================
(PID.TID 0000.0001) // Begin MONITOR dynamic field statistics
(PID.TID 0000.0001) // =======================================================
(PID.TID 0000.0001) %MON g__time_tsnumber             =                    37
(PID.TID 0000.0001) %MON g__time_secondsf             =   1.5984000000000E+06
(PID.TID 0000.0001) %MON g__dynstat_g_eta_max         =   3.9478712837384E-03
(PID.TID 0000.0001) %MON g__dynstat_g_eta_min         =  -3.4207954616339E-05
(PID.TID 0000.0001) %MON g__dynstat_g_eta_mean        =  -1.2605196091903E-18
(PID.TID 0000.0001) %MON g__dynstat_g_eta_sd          =   4.9830469772175E-05
(PID.TID 0000.0001) %MON g__dynstat_g_eta_del2        =   1.8555638995729E-06
(PID.TID 0000.0001) %MON g__dynstat_g_uvel_max        =   5.6380994894418E-05
(PID.TID 0000.0001) %MON g__dynstat_g_uvel_min        =  -3.2676904632060E-04
(PID.TID 0000.0001) %MON g__dynstat_g_uvel_mean       =   2.7036770504060E-08
(PID.TID 0000.0001) %MON g__dynstat_g_uvel_sd         =   6.4135592186463E-07
(PID.TID 0000.0001) %MON g__dynstat_g_uvel_del2       =   5.2810945368335E-08
(PID.TID 0000.0001) %MON g__dynstat_g_vvel_max        =   1.9799859647472E-04
(PID.TID 0000.0001) %MON g__dynstat_g_vvel_min        =  -1.1616107501637E-04
(PID.TID 0000.0001) %MON g__dynstat_g_vvel_mean       =  -1.6627308919126E-08
(PID.TID 0000.0001) %MON g__dynstat_g_vvel_sd         =   7.6939703859979E-07
(PID.TID 0000.0001) %MON g__dynstat_g_vvel_del2       =   5.5256735286945E-08
(PID.TID 0000.0001) %MON g__dynstat_g_wvel_max        =   1.4857961010075E-07
(PID.TID 0000.0001) %MON g__dynstat_g_wvel_min        =  -3.8648958955242E-08
(PID.TID 0000.0001) %MON g__dynstat_g_wvel_mean       =  -2.2213570799719E-27
(PID.TID 0000.0001) %MON g__dynstat_g_wvel_sd         =   7.6630001941581E-10
(PID.TID 0000.0001) %MON g__dynstat_g_wvel_del2       =   1.1254687870978E-10
(PID.TID 0000.0001) %MON g__dynstat_g_theta_max       =   8.7521114804164E-01
(PID.TID 0000.0001) %MON g__dynstat_g_theta_min       =  -1.3403270229738E-04
(PID.TID 0000.0001) %MON g__dynstat_g_theta_mean      =   2.8852322084525E-06
(PID.TID 0000.0001) %MON g__dynstat_g_theta_sd        =   1.3069581900054E-03
(PID.TID 0000.0001) %MON g__dynstat_g_theta_del2      =   3.5042727461843E-05
(PID.TID 0000.0001) %MON g__dynstat_g_salt_max        =   5.7283210852221E-03
(PID.TID 0000.0001) %MON g__dynstat_g_salt_min        =  -4.8225219586152E-03
(PID.TID 0000.0001) %MON g__dynstat_g_salt_mean       =  -1.0572680794541E-09
(PID.TID 0000.0001) %MON g__dynstat_g_salt_sd         =   1.0857822139188E-05
(PID.TID 0000.0001) %MON g__dynstat_g_salt_del2       =   5.6167073488604E-07
(PID.TID 0000.0001) %MON g__dynstat_g_sst_max         =   8.7521114804164E-01
(PID.TID 0000.0001) %MON g__dynstat_g_sst_min         =  -5.3253815426622E-05
(PID.TID 0000.0001) %MON g__dynstat_g_sst_mean        =   1.5539165154037E-04
(PID.TID 0000.0001) %MON g__dynstat_g_sst_sd          =   1.1039075309452E-02
(PID.TID 0000.0001) %MON g__dynstat_g_sst_del2        =   3.5837117693637E-04
(PID.TID 0000.0001) %MON g__dynstat_g_sss_max         =   5.7283210852221E-03
(PID.TID 0000.0001) %MON g__dynstat_g_sss_min         =  -4.8225219586152E-03
(PID.TID 0000.0001) %MON g__dynstat_g_sss_mean        =   2.5504320550481E-07
(PID.TID 0000.0001) %MON g__dynstat_g_sss_sd          =   9.4458203367076E-05
(PID.TID 0000.0001) %MON g__dynstat_g_sss_del2        =   6.0888274878265E-06
(PID.TID 0000.0001) %MON g__extforcing_g_qnet_max     =   0.0000000000000E+00
(PID.TID 0000.0001) %MON g__extforcing_g_qnet_min     =   0.0000000000000E+00
(PID.TID 0000.0001) %MON g__extforcing_g_qnet_mean    =   0.0000000000000E+00
(PID.TID 0000.0001) %MON g__extforcing_g_qnet_sd      =   0.0000000000000E+00
(PID.TID 0000.0001) %MON g__extforcing_g_qnet_del2    =   0.0000000000000E+00
(PID.TID 0000.0001) %MON g__extforcing_g_empmr_max    =   0.0000000000000E+00
(PID.TID 0000.0001) %MON g__extforcing_g_empmr_min    =   0.0000000000000E+00
(PID.TID 0000.0001) %MON g__extforcing_g_empmr_mean   =   0.0000000000000E+00
(PID.TID 0000.0001) %MON g__extforcing_g_empmr_sd     =   0.0000000000000E+00
(PID.TID 0000.0001) %MON g__extforcing_g_empmr_del2   =   0.0000000000000E+00
(PID.TID 0000.0001) %MON g__extforcing_g_fu_max       =   0.0000000000000E+00
(PID.TID 0000.0001) %MON g__extforcing_g_fu_min       =   0.0000000000000E+00
(PID.TID 0000.0001) %MON g__extforcing_g_fu_mean      =   0.0000000000000E+00
(PID.TID 0000.0001) %MON g__extforcing_g_fu_sd        =   0.0000000000000E+00
(PID.TID 0000.0001) %MON g__extforcing_g_fu_del2      =   0.0000000000000E+00
(PID.TID 0000.0001) %MON g__extforcing_g_fv_max       =   0.0000000000000E+00
(PID.TID 0000.0001) %MON g__extforcing_g_fv_min       =   0.0000000000000E+00
(PID.TID 0000.0001) %MON g__extforcing_g_fv_mean      =   0.0000000000000E+00
(PID.TID 0000.0001) %MON g__extforcing_g_fv_sd        =   0.0000000000000E+00
(PID.TID 0000.0001) %MON g__extforcing_g_fv_del2      =   0.0000000000000E+00
(PID.TID 0000.0001) %MON g__g_vcfl_g_uvel_max         =   1.1516215711489E-04
(PID.TID 0000.0001) %MON g__g_vcfl_g_vvel_max         =   1.9233975889665E-05
(PID.TID 0000.0001) %MON g__g_vcfl_g_wvel_max         =   1.9340154320725E-04
(PID.TID 0000.0001) %MON g__g_vcfl_g_W_hf_max         =   2.5674556625409E-04
(PID.TID 0000.0001) // =======================================================
(PID.TID 0000.0001) // End MONITOR dynamic field statistics
(PID.TID 0000.0001) // =======================================================
 cg2d: Sum(rhs),rhsMax =   1.45666955726217E-12  1.36301134499801E-02
 cg2d: Sum(rhs),rhsMax =  -1.11412962189306E-12  8.53412765044119E+00
(PID.TID 0000.0001) // =======================================================
(PID.TID 0000.0001) // Begin MONITOR dynamic field statistics
(PID.TID 0000.0001) // =======================================================
(PID.TID 0000.0001) %MON g__time_tsnumber             =                    38
(PID.TID 0000.0001) %MON g__time_secondsf             =   1.6416000000000E+06
(PID.TID 0000.0001) %MON g__dynstat_g_eta_max         =   4.0808345706557E-03
(PID.TID 0000.0001) %MON g__dynstat_g_eta_min         =  -3.2409063209774E-05
(PID.TID 0000.0001) %MON g__dynstat_g_eta_mean        =  -1.3300057170154E-18
(PID.TID 0000.0001) %MON g__dynstat_g_eta_sd          =   5.1544032946665E-05
(PID.TID 0000.0001) %MON g__dynstat_g_eta_del2        =   1.8846403543878E-06
(PID.TID 0000.0001) %MON g__dynstat_g_uvel_max        =   3.8687338240048E-05
(PID.TID 0000.0001) %MON g__dynstat_g_uvel_min        =  -2.4610218607324E-04
(PID.TID 0000.0001) %MON g__dynstat_g_uvel_mean       =   2.7179261825062E-08
(PID.TID 0000.0001) %MON g__dynstat_g_uvel_sd         =   5.1954251970889E-07
(PID.TID 0000.0001) %MON g__dynstat_g_uvel_del2       =   5.1179835920279E-08
(PID.TID 0000.0001) %MON g__dynstat_g_vvel_max        =   2.0351027013740E-04
(PID.TID 0000.0001) %MON g__dynstat_g_vvel_min        =  -1.1869825928127E-04
(PID.TID 0000.0001) %MON g__dynstat_g_vvel_mean       =  -1.8814860921017E-08
(PID.TID 0000.0001) %MON g__dynstat_g_vvel_sd         =   7.8814478707655E-07
(PID.TID 0000.0001) %MON g__dynstat_g_vvel_del2       =   5.5658984858502E-08
(PID.TID 0000.0001) %MON g__dynstat_g_wvel_max        =   1.3198046269199E-07
(PID.TID 0000.0001) %MON g__dynstat_g_wvel_min        =  -1.9943529699726E-08
(PID.TID 0000.0001) %MON g__dynstat_g_wvel_mean       =   2.7741712291961E-27
(PID.TID 0000.0001) %MON g__dynstat_g_wvel_sd         =   7.3275796289462E-10
(PID.TID 0000.0001) %MON g__dynstat_g_wvel_del2       =   1.0946404950129E-10
(PID.TID 0000.0001) %MON g__dynstat_g_theta_max       =   8.7723296713993E-01
(PID.TID 0000.0001) %MON g__dynstat_g_theta_min       =  -1.3738130655139E-04
(PID.TID 0000.0001) %MON g__dynstat_g_theta_mean      =   2.9360175699649E-06
(PID.TID 0000.0001) %MON g__dynstat_g_theta_sd        =   1.3140813166680E-03
(PID.TID 0000.0001) %MON g__dynstat_g_theta_del2      =   3.5358039736205E-05
(PID.TID 0000.0001) %MON g__dynstat_g_salt_max        =   5.9113193966421E-03
(PID.TID 0000.0001) %MON g__dynstat_g_salt_min        =  -5.0035193247850E-03
(PID.TID 0000.0001) %MON g__dynstat_g_salt_mean       =  -1.3062578099405E-09
(PID.TID 0000.0001) %MON g__dynstat_g_salt_sd         =   1.1218649212486E-05
(PID.TID 0000.0001) %MON g__dynstat_g_salt_del2       =   5.7369647683888E-07
(PID.TID 0000.0001) %MON g__dynstat_g_sst_max         =   8.7723296713993E-01
(PID.TID 0000.0001) %MON g__dynstat_g_sst_min         =  -5.7902586868278E-05
(PID.TID 0000.0001) %MON g__dynstat_g_sst_mean        =   1.5636924979150E-04
(PID.TID 0000.0001) %MON g__dynstat_g_sst_sd          =   1.1067012859965E-02
(PID.TID 0000.0001) %MON g__dynstat_g_sst_del2        =   3.5856769232105E-04
(PID.TID 0000.0001) %MON g__dynstat_g_sss_max         =   5.9113193966421E-03
(PID.TID 0000.0001) %MON g__dynstat_g_sss_min         =  -5.0035193247850E-03
(PID.TID 0000.0001) %MON g__dynstat_g_sss_mean        =   2.6154549158672E-07
(PID.TID 0000.0001) %MON g__dynstat_g_sss_sd          =   9.7701410463189E-05
(PID.TID 0000.0001) %MON g__dynstat_g_sss_del2        =   6.2799195704095E-06
(PID.TID 0000.0001) %MON g__extforcing_g_qnet_max     =   0.0000000000000E+00
(PID.TID 0000.0001) %MON g__extforcing_g_qnet_min     =   0.0000000000000E+00
(PID.TID 0000.0001) %MON g__extforcing_g_qnet_mean    =   0.0000000000000E+00
(PID.TID 0000.0001) %MON g__extforcing_g_qnet_sd      =   0.0000000000000E+00
(PID.TID 0000.0001) %MON g__extforcing_g_qnet_del2    =   0.0000000000000E+00
(PID.TID 0000.0001) %MON g__extforcing_g_empmr_max    =   0.0000000000000E+00
(PID.TID 0000.0001) %MON g__extforcing_g_empmr_min    =   0.0000000000000E+00
(PID.TID 0000.0001) %MON g__extforcing_g_empmr_mean   =   0.0000000000000E+00
(PID.TID 0000.0001) %MON g__extforcing_g_empmr_sd     =   0.0000000000000E+00
(PID.TID 0000.0001) %MON g__extforcing_g_empmr_del2   =   0.0000000000000E+00
(PID.TID 0000.0001) %MON g__extforcing_g_fu_max       =   0.0000000000000E+00
(PID.TID 0000.0001) %MON g__extforcing_g_fu_min       =   0.0000000000000E+00
(PID.TID 0000.0001) %MON g__extforcing_g_fu_mean      =   0.0000000000000E+00
(PID.TID 0000.0001) %MON g__extforcing_g_fu_sd        =   0.0000000000000E+00
(PID.TID 0000.0001) %MON g__extforcing_g_fu_del2      =   0.0000000000000E+00
(PID.TID 0000.0001) %MON g__extforcing_g_fv_max       =   0.0000000000000E+00
(PID.TID 0000.0001) %MON g__extforcing_g_fv_min       =   0.0000000000000E+00
(PID.TID 0000.0001) %MON g__extforcing_g_fv_mean      =   0.0000000000000E+00
(PID.TID 0000.0001) %MON g__extforcing_g_fv_sd        =   0.0000000000000E+00
(PID.TID 0000.0001) %MON g__extforcing_g_fv_del2      =   0.0000000000000E+00
(PID.TID 0000.0001) %MON g__g_vcfl_g_uvel_max         =   8.6732996708260E-05
(PID.TID 0000.0001) %MON g__g_vcfl_g_vvel_max         =   1.9769390787685E-05
(PID.TID 0000.0001) %MON g__g_vcfl_g_wvel_max         =   1.9146713316085E-04
(PID.TID 0000.0001) %MON g__g_vcfl_g_W_hf_max         =   2.2806223953176E-04
(PID.TID 0000.0001) // =======================================================
(PID.TID 0000.0001) // End MONITOR dynamic field statistics
(PID.TID 0000.0001) // =======================================================
 cg2d: Sum(rhs),rhsMax =   1.49404386526275E-12  1.40036492787457E-02
 cg2d: Sum(rhs),rhsMax =  -1.14792203520508E-12  8.14100424312465E+00
(PID.TID 0000.0001) // =======================================================
(PID.TID 0000.0001) // Begin MONITOR dynamic field statistics
(PID.TID 0000.0001) // =======================================================
(PID.TID 0000.0001) %MON g__time_tsnumber             =                    39
(PID.TID 0000.0001) %MON g__time_secondsf             =   1.6848000000000E+06
(PID.TID 0000.0001) %MON g__dynstat_g_eta_max         =   4.2051077576879E-03
(PID.TID 0000.0001) %MON g__dynstat_g_eta_min         =  -2.9488142821051E-05
(PID.TID 0000.0001) %MON g__dynstat_g_eta_mean        =  -1.3520762841121E-18
(PID.TID 0000.0001) %MON g__dynstat_g_eta_sd          =   5.3159864587283E-05
(PID.TID 0000.0001) %MON g__dynstat_g_eta_del2        =   1.9124474811425E-06
(PID.TID 0000.0001) %MON g__dynstat_g_uvel_max        =   2.6940824095203E-05
(PID.TID 0000.0001) %MON g__dynstat_g_uvel_min        =  -1.6063326841238E-04
(PID.TID 0000.0001) %MON g__dynstat_g_uvel_mean       =   2.7877514989297E-08
(PID.TID 0000.0001) %MON g__dynstat_g_uvel_sd         =   4.0131780550525E-07
(PID.TID 0000.0001) %MON g__dynstat_g_uvel_del2       =   4.8811878090900E-08
(PID.TID 0000.0001) %MON g__dynstat_g_vvel_max        =   2.2077788395374E-04
(PID.TID 0000.0001) %MON g__dynstat_g_vvel_min        =  -1.1991007959957E-04
(PID.TID 0000.0001) %MON g__dynstat_g_vvel_mean       =  -2.0600159277431E-08
(PID.TID 0000.0001) %MON g__dynstat_g_vvel_sd         =   8.0718863805539E-07
(PID.TID 0000.0001) %MON g__dynstat_g_vvel_del2       =   5.5847424123668E-08
(PID.TID 0000.0001) %MON g__dynstat_g_wvel_max        =   1.1184013884366E-07
(PID.TID 0000.0001) %MON g__dynstat_g_wvel_min        =  -1.9688125450164E-08
(PID.TID 0000.0001) %MON g__dynstat_g_wvel_mean       =   9.0910253754945E-27
(PID.TID 0000.0001) %MON g__dynstat_g_wvel_sd         =   6.8499151344466E-10
(PID.TID 0000.0001) %MON g__dynstat_g_wvel_del2       =   1.0495556627157E-10
(PID.TID 0000.0001) %MON g__dynstat_g_theta_max       =   8.7823045992801E-01
(PID.TID 0000.0001) %MON g__dynstat_g_theta_min       =  -1.4059441572399E-04
(PID.TID 0000.0001) %MON g__dynstat_g_theta_mean      =   2.9822655917579E-06
(PID.TID 0000.0001) %MON g__dynstat_g_theta_sd        =   1.3196027067180E-03
(PID.TID 0000.0001) %MON g__dynstat_g_theta_del2      =   3.5619210873698E-05
(PID.TID 0000.0001) %MON g__dynstat_g_salt_max        =   6.0849077101302E-03
(PID.TID 0000.0001) %MON g__dynstat_g_salt_min        =  -5.1725916740221E-03
(PID.TID 0000.0001) %MON g__dynstat_g_salt_mean       =  -1.4269466341560E-09
(PID.TID 0000.0001) %MON g__dynstat_g_salt_sd         =   1.1561488348696E-05
(PID.TID 0000.0001) %MON g__dynstat_g_salt_del2       =   5.8526912641889E-07
(PID.TID 0000.0001) %MON g__dynstat_g_sst_max         =   8.7823045992801E-01
(PID.TID 0000.0001) %MON g__dynstat_g_sst_min         =  -6.4232372242661E-05
(PID.TID 0000.0001) %MON g__dynstat_g_sst_mean        =   1.5712990565123E-04
(PID.TID 0000.0001) %MON g__dynstat_g_sst_sd          =   1.1082000961175E-02
(PID.TID 0000.0001) %MON g__dynstat_g_sst_del2        =   3.5837661763754E-04
(PID.TID 0000.0001) %MON g__dynstat_g_sss_max         =   6.0849077101302E-03
(PID.TID 0000.0001) %MON g__dynstat_g_sss_min         =  -5.1725916740221E-03
(PID.TID 0000.0001) %MON g__dynstat_g_sss_mean        =   2.6955610233602E-07
(PID.TID 0000.0001) %MON g__dynstat_g_sss_sd          =   1.0075921486871E-04
(PID.TID 0000.0001) %MON g__dynstat_g_sss_del2        =   6.4602395457233E-06
(PID.TID 0000.0001) %MON g__extforcing_g_qnet_max     =   0.0000000000000E+00
(PID.TID 0000.0001) %MON g__extforcing_g_qnet_min     =   0.0000000000000E+00
(PID.TID 0000.0001) %MON g__extforcing_g_qnet_mean    =   0.0000000000000E+00
(PID.TID 0000.0001) %MON g__extforcing_g_qnet_sd      =   0.0000000000000E+00
(PID.TID 0000.0001) %MON g__extforcing_g_qnet_del2    =   0.0000000000000E+00
(PID.TID 0000.0001) %MON g__extforcing_g_empmr_max    =   0.0000000000000E+00
(PID.TID 0000.0001) %MON g__extforcing_g_empmr_min    =   0.0000000000000E+00
(PID.TID 0000.0001) %MON g__extforcing_g_empmr_mean   =   0.0000000000000E+00
(PID.TID 0000.0001) %MON g__extforcing_g_empmr_sd     =   0.0000000000000E+00
(PID.TID 0000.0001) %MON g__extforcing_g_empmr_del2   =   0.0000000000000E+00
(PID.TID 0000.0001) %MON g__extforcing_g_fu_max       =   0.0000000000000E+00
(PID.TID 0000.0001) %MON g__extforcing_g_fu_min       =   0.0000000000000E+00
(PID.TID 0000.0001) %MON g__extforcing_g_fu_mean      =   0.0000000000000E+00
(PID.TID 0000.0001) %MON g__extforcing_g_fu_sd        =   0.0000000000000E+00
(PID.TID 0000.0001) %MON g__extforcing_g_fu_del2      =   0.0000000000000E+00
(PID.TID 0000.0001) %MON g__extforcing_g_fv_max       =   0.0000000000000E+00
(PID.TID 0000.0001) %MON g__extforcing_g_fv_min       =   0.0000000000000E+00
(PID.TID 0000.0001) %MON g__extforcing_g_fv_mean      =   0.0000000000000E+00
(PID.TID 0000.0001) %MON g__extforcing_g_fv_sd        =   0.0000000000000E+00
(PID.TID 0000.0001) %MON g__extforcing_g_fv_del2      =   0.0000000000000E+00
(PID.TID 0000.0001) %MON g__g_vcfl_g_uvel_max         =   5.6611462753531E-05
(PID.TID 0000.0001) %MON g__g_vcfl_g_vvel_max         =   2.1446801000328E-05
(PID.TID 0000.0001) %MON g__g_vcfl_g_wvel_max         =   1.7895338932642E-04
(PID.TID 0000.0001) %MON g__g_vcfl_g_W_hf_max         =   1.9325975992184E-04
(PID.TID 0000.0001) // =======================================================
(PID.TID 0000.0001) // End MONITOR dynamic field statistics
(PID.TID 0000.0001) // =======================================================
 cg2d: Sum(rhs),rhsMax =   1.48457811049548E-12  1.43317747021890E-02
 cg2d: Sum(rhs),rhsMax =  -1.03755892766344E-12  7.67572566966594E+00
(PID.TID 0000.0001) // =======================================================
(PID.TID 0000.0001) // Begin MONITOR dynamic field statistics
(PID.TID 0000.0001) // =======================================================
(PID.TID 0000.0001) %MON g__time_tsnumber             =                    40
(PID.TID 0000.0001) %MON g__time_secondsf             =   1.7280000000000E+06
(PID.TID 0000.0001) %MON g__dynstat_g_eta_max         =   4.3145970426430E-03
(PID.TID 0000.0001) %MON g__dynstat_g_eta_min         =  -3.0621958482102E-05
(PID.TID 0000.0001) %MON g__dynstat_g_eta_mean        =  -1.3038468948584E-18
(PID.TID 0000.0001) %MON g__dynstat_g_eta_sd          =   5.4594395029993E-05
(PID.TID 0000.0001) %MON g__dynstat_g_eta_del2        =   1.9473390687131E-06
(PID.TID 0000.0001) %MON g__dynstat_g_uvel_max        =   2.7906928931493E-05
(PID.TID 0000.0001) %MON g__dynstat_g_uvel_min        =  -7.3586513239701E-05
(PID.TID 0000.0001) %MON g__dynstat_g_uvel_mean       =   2.9081375395721E-08
(PID.TID 0000.0001) %MON g__dynstat_g_uvel_sd         =   3.0827445169766E-07
(PID.TID 0000.0001) %MON g__dynstat_g_uvel_del2       =   4.6185925075259E-08
(PID.TID 0000.0001) %MON g__dynstat_g_vvel_max        =   2.4174977200806E-04
(PID.TID 0000.0001) %MON g__dynstat_g_vvel_min        =  -1.1989726617623E-04
(PID.TID 0000.0001) %MON g__dynstat_g_vvel_mean       =  -2.1847340501548E-08
(PID.TID 0000.0001) %MON g__dynstat_g_vvel_sd         =   8.2628008799363E-07
(PID.TID 0000.0001) %MON g__dynstat_g_vvel_del2       =   5.5865826328095E-08
(PID.TID 0000.0001) %MON g__dynstat_g_wvel_max        =   9.1697309196103E-08
(PID.TID 0000.0001) %MON g__dynstat_g_wvel_min        =  -1.9306463537128E-08
(PID.TID 0000.0001) %MON g__dynstat_g_wvel_mean       =   8.2254134290672E-28
(PID.TID 0000.0001) %MON g__dynstat_g_wvel_sd         =   6.3529978214087E-10
(PID.TID 0000.0001) %MON g__dynstat_g_wvel_del2       =   1.0076192269393E-10
(PID.TID 0000.0001) %MON g__dynstat_g_theta_max       =   8.7811999664571E-01
(PID.TID 0000.0001) %MON g__dynstat_g_theta_min       =  -1.4366496076121E-04
(PID.TID 0000.0001) %MON g__dynstat_g_theta_mean      =   3.0232299321521E-06
(PID.TID 0000.0001) %MON g__dynstat_g_theta_sd        =   1.3233364968508E-03
(PID.TID 0000.0001) %MON g__dynstat_g_theta_del2      =   3.5821513620766E-05
(PID.TID 0000.0001) %MON g__dynstat_g_salt_max        =   6.2472815680255E-03
(PID.TID 0000.0001) %MON g__dynstat_g_salt_min        =  -5.3287266961141E-03
(PID.TID 0000.0001) %MON g__dynstat_g_salt_mean       =  -1.4214804474429E-09
(PID.TID 0000.0001) %MON g__dynstat_g_salt_sd         =   1.1882558191933E-05
(PID.TID 0000.0001) %MON g__dynstat_g_salt_del2       =   5.9650311884936E-07
(PID.TID 0000.0001) %MON g__dynstat_g_sst_max         =   8.7811999664571E-01
(PID.TID 0000.0001) %MON g__dynstat_g_sst_min         =  -7.1873057559590E-05
(PID.TID 0000.0001) %MON g__dynstat_g_sst_mean        =   1.5765027915656E-04
(PID.TID 0000.0001) %MON g__dynstat_g_sst_sd          =   1.1082949088980E-02
(PID.TID 0000.0001) %MON g__dynstat_g_sst_del2        =   3.5777623540212E-04
(PID.TID 0000.0001) %MON g__dynstat_g_sss_max         =   6.2472815680255E-03
(PID.TID 0000.0001) %MON g__dynstat_g_sss_min         =  -5.3287266961141E-03
(PID.TID 0000.0001) %MON g__dynstat_g_sss_mean        =   2.7885972855339E-07
(PID.TID 0000.0001) %MON g__dynstat_g_sss_sd          =   1.0360525722175E-04
(PID.TID 0000.0001) %MON g__dynstat_g_sss_del2        =   6.6293870218476E-06
(PID.TID 0000.0001) %MON g__extforcing_g_qnet_max     =   0.0000000000000E+00
(PID.TID 0000.0001) %MON g__extforcing_g_qnet_min     =   0.0000000000000E+00
(PID.TID 0000.0001) %MON g__extforcing_g_qnet_mean    =   0.0000000000000E+00
(PID.TID 0000.0001) %MON g__extforcing_g_qnet_sd      =   0.0000000000000E+00
(PID.TID 0000.0001) %MON g__extforcing_g_qnet_del2    =   0.0000000000000E+00
(PID.TID 0000.0001) %MON g__extforcing_g_empmr_max    =   0.0000000000000E+00
(PID.TID 0000.0001) %MON g__extforcing_g_empmr_min    =   0.0000000000000E+00
(PID.TID 0000.0001) %MON g__extforcing_g_empmr_mean   =   0.0000000000000E+00
(PID.TID 0000.0001) %MON g__extforcing_g_empmr_sd     =   0.0000000000000E+00
(PID.TID 0000.0001) %MON g__extforcing_g_empmr_del2   =   0.0000000000000E+00
(PID.TID 0000.0001) %MON g__extforcing_g_fu_max       =   0.0000000000000E+00
(PID.TID 0000.0001) %MON g__extforcing_g_fu_min       =   0.0000000000000E+00
(PID.TID 0000.0001) %MON g__extforcing_g_fu_mean      =   0.0000000000000E+00
(PID.TID 0000.0001) %MON g__extforcing_g_fu_sd        =   0.0000000000000E+00
(PID.TID 0000.0001) %MON g__extforcing_g_fu_del2      =   0.0000000000000E+00
(PID.TID 0000.0001) %MON g__extforcing_g_fv_max       =   0.0000000000000E+00
(PID.TID 0000.0001) %MON g__extforcing_g_fv_min       =   0.0000000000000E+00
(PID.TID 0000.0001) %MON g__extforcing_g_fv_mean      =   0.0000000000000E+00
(PID.TID 0000.0001) %MON g__extforcing_g_fv_sd        =   0.0000000000000E+00
(PID.TID 0000.0001) %MON g__extforcing_g_fv_del2      =   0.0000000000000E+00
(PID.TID 0000.0001) %MON g__g_vcfl_g_uvel_max         =   2.5933856632594E-05
(PID.TID 0000.0001) %MON g__g_vcfl_g_vvel_max         =   2.3484051750482E-05
(PID.TID 0000.0001) %MON g__g_vcfl_g_wvel_max         =   1.5766457033540E-04
(PID.TID 0000.0001) %MON g__g_vcfl_g_W_hf_max         =   1.5845295029087E-04
(PID.TID 0000.0001) // =======================================================
(PID.TID 0000.0001) // End MONITOR dynamic field statistics
(PID.TID 0000.0001) // =======================================================
 myIter=  40
(PID.TID 0000.0001) // Model state written, timestep        40
(PID.TID 0000.0001) 
 cg2d: Sum(rhs),rhsMax =   1.40444093761337E-12  1.46018551829218E-02
 cg2d: Sum(rhs),rhsMax =  -6.19490569953030E-13  7.14638778751145E+00
(PID.TID 0000.0001) // =======================================================
(PID.TID 0000.0001) // Begin MONITOR dynamic field statistics
(PID.TID 0000.0001) // =======================================================
(PID.TID 0000.0001) %MON g__time_tsnumber             =                    41
(PID.TID 0000.0001) %MON g__time_secondsf             =   1.7712000000000E+06
(PID.TID 0000.0001) %MON g__dynstat_g_eta_max         =   4.4047236742518E-03
(PID.TID 0000.0001) %MON g__dynstat_g_eta_min         =  -4.1076631574671E-05
(PID.TID 0000.0001) %MON g__dynstat_g_eta_mean        =  -1.3046026409663E-18
(PID.TID 0000.0001) %MON g__dynstat_g_eta_sd          =   5.5781939157723E-05
(PID.TID 0000.0001) %MON g__dynstat_g_eta_del2        =   1.9785876575113E-06
(PID.TID 0000.0001) %MON g__dynstat_g_uvel_max        =   2.8225972796171E-05
(PID.TID 0000.0001) %MON g__dynstat_g_uvel_min        =  -4.3691087238312E-05
(PID.TID 0000.0001) %MON g__dynstat_g_uvel_mean       =   3.0705583342427E-08
(PID.TID 0000.0001) %MON g__dynstat_g_uvel_sd         =   2.7693075372047E-07
(PID.TID 0000.0001) %MON g__dynstat_g_uvel_del2       =   4.4403769670197E-08
(PID.TID 0000.0001) %MON g__dynstat_g_vvel_max        =   2.6520269666373E-04
(PID.TID 0000.0001) %MON g__dynstat_g_vvel_min        =  -1.1930867934235E-04
(PID.TID 0000.0001) %MON g__dynstat_g_vvel_mean       =  -2.2463771884116E-08
(PID.TID 0000.0001) %MON g__dynstat_g_vvel_sd         =   8.4629967972779E-07
(PID.TID 0000.0001) %MON g__dynstat_g_vvel_del2       =   5.5864729790984E-08
(PID.TID 0000.0001) %MON g__dynstat_g_wvel_max        =   1.1341360674263E-07
(PID.TID 0000.0001) %MON g__dynstat_g_wvel_min        =  -1.8921201374896E-08
(PID.TID 0000.0001) %MON g__dynstat_g_wvel_mean       =   1.7896721674137E-27
(PID.TID 0000.0001) %MON g__dynstat_g_wvel_sd         =   6.0122180364112E-10
(PID.TID 0000.0001) %MON g__dynstat_g_wvel_del2       =   9.7586184290084E-11
(PID.TID 0000.0001) %MON g__dynstat_g_theta_max       =   8.7683696086568E-01
(PID.TID 0000.0001) %MON g__dynstat_g_theta_min       =  -1.4664089497613E-04
(PID.TID 0000.0001) %MON g__dynstat_g_theta_mean      =   3.0582195325997E-06
(PID.TID 0000.0001) %MON g__dynstat_g_theta_sd        =   1.3251272641344E-03
(PID.TID 0000.0001) %MON g__dynstat_g_theta_del2      =   3.5957158814249E-05
(PID.TID 0000.0001) %MON g__dynstat_g_salt_max        =   6.3970205822801E-03
(PID.TID 0000.0001) %MON g__dynstat_g_salt_min        =  -5.4710362135194E-03
(PID.TID 0000.0001) %MON g__dynstat_g_salt_mean       =  -1.3030719850851E-09
(PID.TID 0000.0001) %MON g__dynstat_g_salt_sd         =   1.2178670244297E-05
(PID.TID 0000.0001) %MON g__dynstat_g_salt_del2       =   6.0669660843035E-07
(PID.TID 0000.0001) %MON g__dynstat_g_sst_max         =   8.7683696086568E-01
(PID.TID 0000.0001) %MON g__dynstat_g_sst_min         =  -8.0299246818992E-05
(PID.TID 0000.0001) %MON g__dynstat_g_sst_mean        =   1.5791451554145E-04
(PID.TID 0000.0001) %MON g__dynstat_g_sst_sd          =   1.1069004992776E-02
(PID.TID 0000.0001) %MON g__dynstat_g_sst_del2        =   3.5673623899575E-04
(PID.TID 0000.0001) %MON g__dynstat_g_sss_max         =   6.3970205822801E-03
(PID.TID 0000.0001) %MON g__dynstat_g_sss_min         =  -5.4710362135194E-03
(PID.TID 0000.0001) %MON g__dynstat_g_sss_mean        =   2.8969362124219E-07
(PID.TID 0000.0001) %MON g__dynstat_g_sss_sd          =   1.0621790675939E-04
(PID.TID 0000.0001) %MON g__dynstat_g_sss_del2        =   6.7861496290564E-06
(PID.TID 0000.0001) %MON g__extforcing_g_qnet_max     =   0.0000000000000E+00
(PID.TID 0000.0001) %MON g__extforcing_g_qnet_min     =   0.0000000000000E+00
(PID.TID 0000.0001) %MON g__extforcing_g_qnet_mean    =   0.0000000000000E+00
(PID.TID 0000.0001) %MON g__extforcing_g_qnet_sd      =   0.0000000000000E+00
(PID.TID 0000.0001) %MON g__extforcing_g_qnet_del2    =   0.0000000000000E+00
(PID.TID 0000.0001) %MON g__extforcing_g_empmr_max    =   0.0000000000000E+00
(PID.TID 0000.0001) %MON g__extforcing_g_empmr_min    =   0.0000000000000E+00
(PID.TID 0000.0001) %MON g__extforcing_g_empmr_mean   =   0.0000000000000E+00
(PID.TID 0000.0001) %MON g__extforcing_g_empmr_sd     =   0.0000000000000E+00
(PID.TID 0000.0001) %MON g__extforcing_g_empmr_del2   =   0.0000000000000E+00
(PID.TID 0000.0001) %MON g__extforcing_g_fu_max       =   0.0000000000000E+00
(PID.TID 0000.0001) %MON g__extforcing_g_fu_min       =   0.0000000000000E+00
(PID.TID 0000.0001) %MON g__extforcing_g_fu_mean      =   0.0000000000000E+00
(PID.TID 0000.0001) %MON g__extforcing_g_fu_sd        =   0.0000000000000E+00
(PID.TID 0000.0001) %MON g__extforcing_g_fu_del2      =   0.0000000000000E+00
(PID.TID 0000.0001) %MON g__extforcing_g_fv_max       =   0.0000000000000E+00
(PID.TID 0000.0001) %MON g__extforcing_g_fv_min       =   0.0000000000000E+00
(PID.TID 0000.0001) %MON g__extforcing_g_fv_mean      =   0.0000000000000E+00
(PID.TID 0000.0001) %MON g__extforcing_g_fv_sd        =   0.0000000000000E+00
(PID.TID 0000.0001) %MON g__extforcing_g_fv_del2      =   0.0000000000000E+00
(PID.TID 0000.0001) %MON g__g_vcfl_g_uvel_max         =   1.2409323975879E-05
(PID.TID 0000.0001) %MON g__g_vcfl_g_vvel_max         =   2.5762315310935E-05
(PID.TID 0000.0001) %MON g__g_vcfl_g_wvel_max         =   1.2978234951656E-04
(PID.TID 0000.0001) %MON g__g_vcfl_g_W_hf_max         =   1.9597871245127E-04
(PID.TID 0000.0001) // =======================================================
(PID.TID 0000.0001) // End MONITOR dynamic field statistics
(PID.TID 0000.0001) // =======================================================
 cg2d: Sum(rhs),rhsMax =   1.38678042858892E-12  1.48055992237075E-02
 cg2d: Sum(rhs),rhsMax =  -4.48079073844809E-13  7.16032443393138E+00
(PID.TID 0000.0001) // =======================================================
(PID.TID 0000.0001) // Begin MONITOR dynamic field statistics
(PID.TID 0000.0001) // =======================================================
(PID.TID 0000.0001) %MON g__time_tsnumber             =                    42
(PID.TID 0000.0001) %MON g__time_secondsf             =   1.8144000000000E+06
(PID.TID 0000.0001) %MON g__dynstat_g_eta_max         =   4.4725271233867E-03
(PID.TID 0000.0001) %MON g__dynstat_g_eta_min         =  -5.2879435065443E-05
(PID.TID 0000.0001) %MON g__dynstat_g_eta_mean        =  -1.2801360685019E-18
(PID.TID 0000.0001) %MON g__dynstat_g_eta_sd          =   5.6678101217374E-05
(PID.TID 0000.0001) %MON g__dynstat_g_eta_del2        =   2.0017292312226E-06
(PID.TID 0000.0001) %MON g__dynstat_g_uvel_max        =   9.3081328024548E-05
(PID.TID 0000.0001) %MON g__dynstat_g_uvel_min        =  -4.8821174083663E-05
(PID.TID 0000.0001) %MON g__dynstat_g_uvel_mean       =   3.2640435647995E-08
(PID.TID 0000.0001) %MON g__dynstat_g_uvel_sd         =   3.2354496401953E-07
(PID.TID 0000.0001) %MON g__dynstat_g_uvel_del2       =   4.4913613892533E-08
(PID.TID 0000.0001) %MON g__dynstat_g_vvel_max        =   2.8987425550175E-04
(PID.TID 0000.0001) %MON g__dynstat_g_vvel_min        =  -1.1918736616966E-04
(PID.TID 0000.0001) %MON g__dynstat_g_vvel_mean       =  -2.2399707703351E-08
(PID.TID 0000.0001) %MON g__dynstat_g_vvel_sd         =   8.6853190586103E-07
(PID.TID 0000.0001) %MON g__dynstat_g_vvel_del2       =   5.5891057005196E-08
(PID.TID 0000.0001) %MON g__dynstat_g_wvel_max        =   1.3102420594289E-07
(PID.TID 0000.0001) %MON g__dynstat_g_wvel_min        =  -2.2927655593565E-08
(PID.TID 0000.0001) %MON g__dynstat_g_wvel_mean       =   8.3923147520037E-28
(PID.TID 0000.0001) %MON g__dynstat_g_wvel_sd         =   5.9695364749340E-10
(PID.TID 0000.0001) %MON g__dynstat_g_wvel_del2       =   9.6424505244629E-11
(PID.TID 0000.0001) %MON g__dynstat_g_theta_max       =   8.7432532096697E-01
(PID.TID 0000.0001) %MON g__dynstat_g_theta_min       =  -1.4962963828004E-04
(PID.TID 0000.0001) %MON g__dynstat_g_theta_mean      =   3.0865576690328E-06
(PID.TID 0000.0001) %MON g__dynstat_g_theta_sd        =   1.3248328244018E-03
(PID.TID 0000.0001) %MON g__dynstat_g_theta_del2      =   3.6026802942728E-05
(PID.TID 0000.0001) %MON g__dynstat_g_salt_max        =   6.5330625070536E-03
(PID.TID 0000.0001) %MON g__dynstat_g_salt_min        =  -5.5986533764389E-03
(PID.TID 0000.0001) %MON g__dynstat_g_salt_mean       =  -1.0936373967073E-09
(PID.TID 0000.0001) %MON g__dynstat_g_salt_sd         =   1.2447268359986E-05
(PID.TID 0000.0001) %MON g__dynstat_g_salt_del2       =   6.1693738513594E-07
(PID.TID 0000.0001) %MON g__dynstat_g_sst_max         =   8.7432532096697E-01
(PID.TID 0000.0001) %MON g__dynstat_g_sst_min         =  -8.8896931850324E-05
(PID.TID 0000.0001) %MON g__dynstat_g_sst_mean        =   1.5790833569561E-04
(PID.TID 0000.0001) %MON g__dynstat_g_sst_sd          =   1.1039423561523E-02
(PID.TID 0000.0001) %MON g__dynstat_g_sst_del2        =   3.5523707964498E-04
(PID.TID 0000.0001) %MON g__dynstat_g_sss_max         =   6.5330625070536E-03
(PID.TID 0000.0001) %MON g__dynstat_g_sss_min         =  -5.5986533764389E-03
(PID.TID 0000.0001) %MON g__dynstat_g_sss_mean        =   3.0148407804084E-07
(PID.TID 0000.0001) %MON g__dynstat_g_sss_sd          =   1.0857917362114E-04
(PID.TID 0000.0001) %MON g__dynstat_g_sss_del2        =   6.9286266516994E-06
(PID.TID 0000.0001) %MON g__extforcing_g_qnet_max     =   0.0000000000000E+00
(PID.TID 0000.0001) %MON g__extforcing_g_qnet_min     =   0.0000000000000E+00
(PID.TID 0000.0001) %MON g__extforcing_g_qnet_mean    =   0.0000000000000E+00
(PID.TID 0000.0001) %MON g__extforcing_g_qnet_sd      =   0.0000000000000E+00
(PID.TID 0000.0001) %MON g__extforcing_g_qnet_del2    =   0.0000000000000E+00
(PID.TID 0000.0001) %MON g__extforcing_g_empmr_max    =   0.0000000000000E+00
(PID.TID 0000.0001) %MON g__extforcing_g_empmr_min    =   0.0000000000000E+00
(PID.TID 0000.0001) %MON g__extforcing_g_empmr_mean   =   0.0000000000000E+00
(PID.TID 0000.0001) %MON g__extforcing_g_empmr_sd     =   0.0000000000000E+00
(PID.TID 0000.0001) %MON g__extforcing_g_empmr_del2   =   0.0000000000000E+00
(PID.TID 0000.0001) %MON g__extforcing_g_fu_max       =   0.0000000000000E+00
(PID.TID 0000.0001) %MON g__extforcing_g_fu_min       =   0.0000000000000E+00
(PID.TID 0000.0001) %MON g__extforcing_g_fu_mean      =   0.0000000000000E+00
(PID.TID 0000.0001) %MON g__extforcing_g_fu_sd        =   0.0000000000000E+00
(PID.TID 0000.0001) %MON g__extforcing_g_fu_del2      =   0.0000000000000E+00
(PID.TID 0000.0001) %MON g__extforcing_g_fv_max       =   0.0000000000000E+00
(PID.TID 0000.0001) %MON g__extforcing_g_fv_min       =   0.0000000000000E+00
(PID.TID 0000.0001) %MON g__extforcing_g_fv_mean      =   0.0000000000000E+00
(PID.TID 0000.0001) %MON g__extforcing_g_fv_sd        =   0.0000000000000E+00
(PID.TID 0000.0001) %MON g__extforcing_g_fv_del2      =   0.0000000000000E+00
(PID.TID 0000.0001) %MON g__g_vcfl_g_uvel_max         =   3.2804351094837E-05
(PID.TID 0000.0001) %MON g__g_vcfl_g_vvel_max         =   2.8158959409932E-05
(PID.TID 0000.0001) %MON g__g_vcfl_g_wvel_max         =   9.7636966754370E-05
(PID.TID 0000.0001) %MON g__g_vcfl_g_W_hf_max         =   2.2640982786931E-04
(PID.TID 0000.0001) // =======================================================
(PID.TID 0000.0001) // End MONITOR dynamic field statistics
(PID.TID 0000.0001) // =======================================================
 cg2d: Sum(rhs),rhsMax =   1.34745744319102E-12  1.49389274150647E-02
 cg2d: Sum(rhs),rhsMax =  -3.42434414157822E-13  7.19604411743552E+00
(PID.TID 0000.0001) // =======================================================
(PID.TID 0000.0001) // Begin MONITOR dynamic field statistics
(PID.TID 0000.0001) // =======================================================
(PID.TID 0000.0001) %MON g__time_tsnumber             =                    43
(PID.TID 0000.0001) %MON g__time_secondsf             =   1.8576000000000E+06
(PID.TID 0000.0001) %MON g__dynstat_g_eta_max         =   4.5166277723080E-03
(PID.TID 0000.0001) %MON g__dynstat_g_eta_min         =  -6.0408727182747E-05
(PID.TID 0000.0001) %MON g__dynstat_g_eta_mean        =  -1.2700761740280E-18
(PID.TID 0000.0001) %MON g__dynstat_g_eta_sd          =   5.7260913477991E-05
(PID.TID 0000.0001) %MON g__dynstat_g_eta_del2        =   2.0154743704912E-06
(PID.TID 0000.0001) %MON g__dynstat_g_uvel_max        =   1.6723930561475E-04
(PID.TID 0000.0001) %MON g__dynstat_g_uvel_min        =  -5.4814696483382E-05
(PID.TID 0000.0001) %MON g__dynstat_g_uvel_mean       =   3.4762633181710E-08
(PID.TID 0000.0001) %MON g__dynstat_g_uvel_sd         =   4.1428896997230E-07
(PID.TID 0000.0001) %MON g__dynstat_g_uvel_del2       =   4.5951965619764E-08
(PID.TID 0000.0001) %MON g__dynstat_g_vvel_max        =   3.1453982692709E-04
(PID.TID 0000.0001) %MON g__dynstat_g_vvel_min        =  -1.1863008556165E-04
(PID.TID 0000.0001) %MON g__dynstat_g_vvel_mean       =  -2.1643722302477E-08
(PID.TID 0000.0001) %MON g__dynstat_g_vvel_sd         =   8.9398537835889E-07
(PID.TID 0000.0001) %MON g__dynstat_g_vvel_del2       =   5.6164557896060E-08
(PID.TID 0000.0001) %MON g__dynstat_g_wvel_max        =   1.4463684355918E-07
(PID.TID 0000.0001) %MON g__dynstat_g_wvel_min        =  -3.8674182589707E-08
(PID.TID 0000.0001) %MON g__dynstat_g_wvel_mean       =  -4.8302511570347E-27
(PID.TID 0000.0001) %MON g__dynstat_g_wvel_sd         =   6.2366645595176E-10
(PID.TID 0000.0001) %MON g__dynstat_g_wvel_del2       =   9.7779391866042E-11
(PID.TID 0000.0001) %MON g__dynstat_g_theta_max       =   8.7053762769943E-01
(PID.TID 0000.0001) %MON g__dynstat_g_theta_min       =  -1.5278669596749E-04
(PID.TID 0000.0001) %MON g__dynstat_g_theta_mean      =   3.1076062771863E-06
(PID.TID 0000.0001) %MON g__dynstat_g_theta_sd        =   1.3223253214217E-03
(PID.TID 0000.0001) %MON g__dynstat_g_theta_del2      =   3.6024896579465E-05
(PID.TID 0000.0001) %MON g__dynstat_g_salt_max        =   6.6547113715319E-03
(PID.TID 0000.0001) %MON g__dynstat_g_salt_min        =  -5.7107299050137E-03
(PID.TID 0000.0001) %MON g__dynstat_g_salt_mean       =  -8.2028791615544E-10
(PID.TID 0000.0001) %MON g__dynstat_g_salt_sd         =   1.2686286281622E-05
(PID.TID 0000.0001) %MON g__dynstat_g_salt_del2       =   6.2671389184321E-07
(PID.TID 0000.0001) %MON g__dynstat_g_sst_max         =   8.7053762769943E-01
(PID.TID 0000.0001) %MON g__dynstat_g_sst_min         =  -9.7043959290357E-05
(PID.TID 0000.0001) %MON g__dynstat_g_sst_mean        =   1.5762231185695E-04
(PID.TID 0000.0001) %MON g__dynstat_g_sst_sd          =   1.0993568697367E-02
(PID.TID 0000.0001) %MON g__dynstat_g_sst_del2        =   3.5326795088792E-04
(PID.TID 0000.0001) %MON g__dynstat_g_sss_max         =   6.6547113715319E-03
(PID.TID 0000.0001) %MON g__dynstat_g_sss_min         =  -5.7107299050137E-03
(PID.TID 0000.0001) %MON g__dynstat_g_sss_mean        =   3.1450288462280E-07
(PID.TID 0000.0001) %MON g__dynstat_g_sss_sd          =   1.1067480044217E-04
(PID.TID 0000.0001) %MON g__dynstat_g_sss_del2        =   7.0574235373544E-06
(PID.TID 0000.0001) %MON g__extforcing_g_qnet_max     =   0.0000000000000E+00
(PID.TID 0000.0001) %MON g__extforcing_g_qnet_min     =   0.0000000000000E+00
(PID.TID 0000.0001) %MON g__extforcing_g_qnet_mean    =   0.0000000000000E+00
(PID.TID 0000.0001) %MON g__extforcing_g_qnet_sd      =   0.0000000000000E+00
(PID.TID 0000.0001) %MON g__extforcing_g_qnet_del2    =   0.0000000000000E+00
(PID.TID 0000.0001) %MON g__extforcing_g_empmr_max    =   0.0000000000000E+00
(PID.TID 0000.0001) %MON g__extforcing_g_empmr_min    =   0.0000000000000E+00
(PID.TID 0000.0001) %MON g__extforcing_g_empmr_mean   =   0.0000000000000E+00
(PID.TID 0000.0001) %MON g__extforcing_g_empmr_sd     =   0.0000000000000E+00
(PID.TID 0000.0001) %MON g__extforcing_g_empmr_del2   =   0.0000000000000E+00
(PID.TID 0000.0001) %MON g__extforcing_g_fu_max       =   0.0000000000000E+00
(PID.TID 0000.0001) %MON g__extforcing_g_fu_min       =   0.0000000000000E+00
(PID.TID 0000.0001) %MON g__extforcing_g_fu_mean      =   0.0000000000000E+00
(PID.TID 0000.0001) %MON g__extforcing_g_fu_sd        =   0.0000000000000E+00
(PID.TID 0000.0001) %MON g__extforcing_g_fu_del2      =   0.0000000000000E+00
(PID.TID 0000.0001) %MON g__extforcing_g_fv_max       =   0.0000000000000E+00
(PID.TID 0000.0001) %MON g__extforcing_g_fv_min       =   0.0000000000000E+00
(PID.TID 0000.0001) %MON g__extforcing_g_fv_mean      =   0.0000000000000E+00
(PID.TID 0000.0001) %MON g__extforcing_g_fv_sd        =   0.0000000000000E+00
(PID.TID 0000.0001) %MON g__extforcing_g_fv_del2      =   0.0000000000000E+00
(PID.TID 0000.0001) %MON g__g_vcfl_g_uvel_max         =   5.8939607058422E-05
(PID.TID 0000.0001) %MON g__g_vcfl_g_vvel_max         =   3.0555021879801E-05
(PID.TID 0000.0001) %MON g__g_vcfl_g_wvel_max         =   1.0413852736261E-04
(PID.TID 0000.0001) %MON g__g_vcfl_g_W_hf_max         =   2.4993246567026E-04
(PID.TID 0000.0001) // =======================================================
(PID.TID 0000.0001) // End MONITOR dynamic field statistics
(PID.TID 0000.0001) // =======================================================
 cg2d: Sum(rhs),rhsMax =   1.33157750879716E-12  1.50016107009339E-02
 cg2d: Sum(rhs),rhsMax =  -5.94906068851486E-13  7.21623310024423E+00
(PID.TID 0000.0001) // =======================================================
(PID.TID 0000.0001) // Begin MONITOR dynamic field statistics
(PID.TID 0000.0001) // =======================================================
(PID.TID 0000.0001) %MON g__time_tsnumber             =                    44
(PID.TID 0000.0001) %MON g__time_secondsf             =   1.9008000000000E+06
(PID.TID 0000.0001) %MON g__dynstat_g_eta_max         =   4.5370822255956E-03
(PID.TID 0000.0001) %MON g__dynstat_g_eta_min         =  -6.2652905012446E-05
(PID.TID 0000.0001) %MON g__dynstat_g_eta_mean        =  -1.2538403398575E-18
(PID.TID 0000.0001) %MON g__dynstat_g_eta_sd          =   5.7529751690395E-05
(PID.TID 0000.0001) %MON g__dynstat_g_eta_del2        =   2.0223454112448E-06
(PID.TID 0000.0001) %MON g__dynstat_g_uvel_max        =   2.3218017019817E-04
(PID.TID 0000.0001) %MON g__dynstat_g_uvel_min        =  -6.1364598922332E-05
(PID.TID 0000.0001) %MON g__dynstat_g_uvel_mean       =   3.6944291231920E-08
(PID.TID 0000.0001) %MON g__dynstat_g_uvel_sd         =   5.1501401180761E-07
(PID.TID 0000.0001) %MON g__dynstat_g_uvel_del2       =   4.7315932050188E-08
(PID.TID 0000.0001) %MON g__dynstat_g_vvel_max        =   3.3807654136069E-04
(PID.TID 0000.0001) %MON g__dynstat_g_vvel_min        =  -1.1789334247524E-04
(PID.TID 0000.0001) %MON g__dynstat_g_vvel_mean       =  -2.0216085112831E-08
(PID.TID 0000.0001) %MON g__dynstat_g_vvel_sd         =   9.2295097466954E-07
(PID.TID 0000.0001) %MON g__dynstat_g_vvel_del2       =   5.6513916243966E-08
(PID.TID 0000.0001) %MON g__dynstat_g_wvel_max        =   1.5774870200418E-07
(PID.TID 0000.0001) %MON g__dynstat_g_wvel_min        =  -5.2641330261443E-08
(PID.TID 0000.0001) %MON g__dynstat_g_wvel_mean       =  -3.2186799819341E-27
(PID.TID 0000.0001) %MON g__dynstat_g_wvel_sd         =   6.6913195071862E-10
(PID.TID 0000.0001) %MON g__dynstat_g_wvel_del2       =   1.0006252551485E-10
(PID.TID 0000.0001) %MON g__dynstat_g_theta_max       =   8.6544353400705E-01
(PID.TID 0000.0001) %MON g__dynstat_g_theta_min       =  -1.5629556718228E-04
(PID.TID 0000.0001) %MON g__dynstat_g_theta_mean      =   3.1208392919023E-06
(PID.TID 0000.0001) %MON g__dynstat_g_theta_sd        =   1.3175080096791E-03
(PID.TID 0000.0001) %MON g__dynstat_g_theta_del2      =   3.5950030328143E-05
(PID.TID 0000.0001) %MON g__dynstat_g_salt_max        =   6.7616769805688E-03
(PID.TID 0000.0001) %MON g__dynstat_g_salt_min        =  -5.8065309255502E-03
(PID.TID 0000.0001) %MON g__dynstat_g_salt_mean       =  -5.1152850006698E-10
(PID.TID 0000.0001) %MON g__dynstat_g_salt_sd         =   1.2894403218161E-05
(PID.TID 0000.0001) %MON g__dynstat_g_salt_del2       =   6.3645982894856E-07
(PID.TID 0000.0001) %MON g__dynstat_g_sst_max         =   8.6544353400705E-01
(PID.TID 0000.0001) %MON g__dynstat_g_sst_min         =  -1.0418979722510E-04
(PID.TID 0000.0001) %MON g__dynstat_g_sst_mean        =   1.5705296656005E-04
(PID.TID 0000.0001) %MON g__dynstat_g_sst_sd          =   1.0931023954871E-02
(PID.TID 0000.0001) %MON g__dynstat_g_sst_del2        =   3.5082474895859E-04
(PID.TID 0000.0001) %MON g__dynstat_g_sss_max         =   6.7616769805688E-03
(PID.TID 0000.0001) %MON g__dynstat_g_sss_min         =  -5.8065309255502E-03
(PID.TID 0000.0001) %MON g__dynstat_g_sss_mean        =   3.2838206224865E-07
(PID.TID 0000.0001) %MON g__dynstat_g_sss_sd          =   1.1249545593835E-04
(PID.TID 0000.0001) %MON g__dynstat_g_sss_del2        =   7.1711110521228E-06
(PID.TID 0000.0001) %MON g__extforcing_g_qnet_max     =   0.0000000000000E+00
(PID.TID 0000.0001) %MON g__extforcing_g_qnet_min     =   0.0000000000000E+00
(PID.TID 0000.0001) %MON g__extforcing_g_qnet_mean    =   0.0000000000000E+00
(PID.TID 0000.0001) %MON g__extforcing_g_qnet_sd      =   0.0000000000000E+00
(PID.TID 0000.0001) %MON g__extforcing_g_qnet_del2    =   0.0000000000000E+00
(PID.TID 0000.0001) %MON g__extforcing_g_empmr_max    =   0.0000000000000E+00
(PID.TID 0000.0001) %MON g__extforcing_g_empmr_min    =   0.0000000000000E+00
(PID.TID 0000.0001) %MON g__extforcing_g_empmr_mean   =   0.0000000000000E+00
(PID.TID 0000.0001) %MON g__extforcing_g_empmr_sd     =   0.0000000000000E+00
(PID.TID 0000.0001) %MON g__extforcing_g_empmr_del2   =   0.0000000000000E+00
(PID.TID 0000.0001) %MON g__extforcing_g_fu_max       =   0.0000000000000E+00
(PID.TID 0000.0001) %MON g__extforcing_g_fu_min       =   0.0000000000000E+00
(PID.TID 0000.0001) %MON g__extforcing_g_fu_mean      =   0.0000000000000E+00
(PID.TID 0000.0001) %MON g__extforcing_g_fu_sd        =   0.0000000000000E+00
(PID.TID 0000.0001) %MON g__extforcing_g_fu_del2      =   0.0000000000000E+00
(PID.TID 0000.0001) %MON g__extforcing_g_fv_max       =   0.0000000000000E+00
(PID.TID 0000.0001) %MON g__extforcing_g_fv_min       =   0.0000000000000E+00
(PID.TID 0000.0001) %MON g__extforcing_g_fv_mean      =   0.0000000000000E+00
(PID.TID 0000.0001) %MON g__extforcing_g_fv_sd        =   0.0000000000000E+00
(PID.TID 0000.0001) %MON g__extforcing_g_fv_del2      =   0.0000000000000E+00
(PID.TID 0000.0001) %MON g__g_vcfl_g_uvel_max         =   8.1826505724447E-05
(PID.TID 0000.0001) %MON g__g_vcfl_g_vvel_max         =   3.2841424945268E-05
(PID.TID 0000.0001) %MON g__g_vcfl_g_wvel_max         =   1.1116360488409E-04
(PID.TID 0000.0001) %MON g__g_vcfl_g_W_hf_max         =   2.6679265172181E-04
(PID.TID 0000.0001) // =======================================================
(PID.TID 0000.0001) // End MONITOR dynamic field statistics
(PID.TID 0000.0001) // =======================================================
 cg2d: Sum(rhs),rhsMax =   1.31707278801626E-12  1.49967756988399E-02
 cg2d: Sum(rhs),rhsMax =  -2.28234098287317E-13  7.36407436363191E+00
(PID.TID 0000.0001) // =======================================================
(PID.TID 0000.0001) // Begin MONITOR dynamic field statistics
(PID.TID 0000.0001) // =======================================================
(PID.TID 0000.0001) %MON g__time_tsnumber             =                    45
(PID.TID 0000.0001) %MON g__time_secondsf             =   1.9440000000000E+06
(PID.TID 0000.0001) %MON g__dynstat_g_eta_max         =   4.5351709462556E-03
(PID.TID 0000.0001) %MON g__dynstat_g_eta_min         =  -5.9332798049565E-05
(PID.TID 0000.0001) %MON g__dynstat_g_eta_mean        =  -1.0958238307661E-18
(PID.TID 0000.0001) %MON g__dynstat_g_eta_sd          =   5.7502485493689E-05
(PID.TID 0000.0001) %MON g__dynstat_g_eta_del2        =   2.0197468815369E-06
(PID.TID 0000.0001) %MON g__dynstat_g_uvel_max        =   2.8606394680672E-04
(PID.TID 0000.0001) %MON g__dynstat_g_uvel_min        =  -6.8146332060353E-05
(PID.TID 0000.0001) %MON g__dynstat_g_uvel_mean       =   3.9060515428810E-08
(PID.TID 0000.0001) %MON g__dynstat_g_uvel_sd         =   6.0834911909401E-07
(PID.TID 0000.0001) %MON g__dynstat_g_uvel_del2       =   4.9353667838987E-08
(PID.TID 0000.0001) %MON g__dynstat_g_vvel_max        =   3.5951184484725E-04
(PID.TID 0000.0001) %MON g__dynstat_g_vvel_min        =  -1.1715998644860E-04
(PID.TID 0000.0001) %MON g__dynstat_g_vvel_mean       =  -1.8161429986629E-08
(PID.TID 0000.0001) %MON g__dynstat_g_vvel_sd         =   9.5488063298043E-07
(PID.TID 0000.0001) %MON g__dynstat_g_vvel_del2       =   5.6851461184142E-08
(PID.TID 0000.0001) %MON g__dynstat_g_wvel_max        =   1.7167666288385E-07
(PID.TID 0000.0001) %MON g__dynstat_g_wvel_min        =  -6.4286344651087E-08
(PID.TID 0000.0001) %MON g__dynstat_g_wvel_mean       =  -1.4644005196988E-27
(PID.TID 0000.0001) %MON g__dynstat_g_wvel_sd         =   7.1685430916151E-10
(PID.TID 0000.0001) %MON g__dynstat_g_wvel_del2       =   1.0317495276516E-10
(PID.TID 0000.0001) %MON g__dynstat_g_theta_max       =   8.5904340177242E-01
(PID.TID 0000.0001) %MON g__dynstat_g_theta_min       =  -1.6034462788580E-04
(PID.TID 0000.0001) %MON g__dynstat_g_theta_mean      =   3.1259458880591E-06
(PID.TID 0000.0001) %MON g__dynstat_g_theta_sd        =   1.3103418281417E-03
(PID.TID 0000.0001) %MON g__dynstat_g_theta_del2      =   3.5801588971293E-05
(PID.TID 0000.0001) %MON g__dynstat_g_salt_max        =   6.8541353473320E-03
(PID.TID 0000.0001) %MON g__dynstat_g_salt_min        =  -5.8856041120411E-03
(PID.TID 0000.0001) %MON g__dynstat_g_salt_mean       =  -1.9363254968042E-10
(PID.TID 0000.0001) %MON g__dynstat_g_salt_sd         =   1.3071234596208E-05
(PID.TID 0000.0001) %MON g__dynstat_g_salt_del2       =   6.4547428838382E-07
(PID.TID 0000.0001) %MON g__dynstat_g_sst_max         =   8.5904340177242E-01
(PID.TID 0000.0001) %MON g__dynstat_g_sst_min         =  -1.0991310245632E-04
(PID.TID 0000.0001) %MON g__dynstat_g_sst_mean        =   1.5619999739649E-04
(PID.TID 0000.0001) %MON g__dynstat_g_sst_sd          =   1.0851768176616E-02
(PID.TID 0000.0001) %MON g__dynstat_g_sst_del2        =   3.4791036025641E-04
(PID.TID 0000.0001) %MON g__dynstat_g_sss_max         =   6.8541353473320E-03
(PID.TID 0000.0001) %MON g__dynstat_g_sss_min         =  -5.8856041120411E-03
(PID.TID 0000.0001) %MON g__dynstat_g_sss_mean        =   3.4242676649271E-07
(PID.TID 0000.0001) %MON g__dynstat_g_sss_sd          =   1.1403876158703E-04
(PID.TID 0000.0001) %MON g__dynstat_g_sss_del2        =   7.2692738330406E-06
(PID.TID 0000.0001) %MON g__extforcing_g_qnet_max     =   0.0000000000000E+00
(PID.TID 0000.0001) %MON g__extforcing_g_qnet_min     =   0.0000000000000E+00
(PID.TID 0000.0001) %MON g__extforcing_g_qnet_mean    =   0.0000000000000E+00
(PID.TID 0000.0001) %MON g__extforcing_g_qnet_sd      =   0.0000000000000E+00
(PID.TID 0000.0001) %MON g__extforcing_g_qnet_del2    =   0.0000000000000E+00
(PID.TID 0000.0001) %MON g__extforcing_g_empmr_max    =   0.0000000000000E+00
(PID.TID 0000.0001) %MON g__extforcing_g_empmr_min    =   0.0000000000000E+00
(PID.TID 0000.0001) %MON g__extforcing_g_empmr_mean   =   0.0000000000000E+00
(PID.TID 0000.0001) %MON g__extforcing_g_empmr_sd     =   0.0000000000000E+00
(PID.TID 0000.0001) %MON g__extforcing_g_empmr_del2   =   0.0000000000000E+00
(PID.TID 0000.0001) %MON g__extforcing_g_fu_max       =   0.0000000000000E+00
(PID.TID 0000.0001) %MON g__extforcing_g_fu_min       =   0.0000000000000E+00
(PID.TID 0000.0001) %MON g__extforcing_g_fu_mean      =   0.0000000000000E+00
(PID.TID 0000.0001) %MON g__extforcing_g_fu_sd        =   0.0000000000000E+00
(PID.TID 0000.0001) %MON g__extforcing_g_fu_del2      =   0.0000000000000E+00
(PID.TID 0000.0001) %MON g__extforcing_g_fv_max       =   0.0000000000000E+00
(PID.TID 0000.0001) %MON g__extforcing_g_fv_min       =   0.0000000000000E+00
(PID.TID 0000.0001) %MON g__extforcing_g_fv_mean      =   0.0000000000000E+00
(PID.TID 0000.0001) %MON g__extforcing_g_fv_sd        =   0.0000000000000E+00
(PID.TID 0000.0001) %MON g__extforcing_g_fv_del2      =   0.0000000000000E+00
(PID.TID 0000.0001) %MON g__g_vcfl_g_uvel_max         =   1.0081659067163E-04
(PID.TID 0000.0001) %MON g__g_vcfl_g_vvel_max         =   3.4923692788519E-05
(PID.TID 0000.0001) %MON g__g_vcfl_g_wvel_max         =   1.1551820384599E-04
(PID.TID 0000.0001) %MON g__g_vcfl_g_W_hf_max         =   2.7724368923039E-04
(PID.TID 0000.0001) // =======================================================
(PID.TID 0000.0001) // End MONITOR dynamic field statistics
(PID.TID 0000.0001) // =======================================================
 cg2d: Sum(rhs),rhsMax =   1.15601085948681E-12  1.49303591803815E-02
 cg2d: Sum(rhs),rhsMax =   4.72635819370737E-13  7.63411997016478E+00
(PID.TID 0000.0001) // =======================================================
(PID.TID 0000.0001) // Begin MONITOR dynamic field statistics
(PID.TID 0000.0001) // =======================================================
(PID.TID 0000.0001) %MON g__time_tsnumber             =                    46
(PID.TID 0000.0001) %MON g__time_secondsf             =   1.9872000000000E+06
(PID.TID 0000.0001) %MON g__dynstat_g_eta_max         =   4.5131555111243E-03
(PID.TID 0000.0001) %MON g__dynstat_g_eta_min         =  -5.0879771866960E-05
(PID.TID 0000.0001) %MON g__dynstat_g_eta_mean        =  -9.8644191680389E-19
(PID.TID 0000.0001) %MON g__dynstat_g_eta_sd          =   5.7211541460084E-05
(PID.TID 0000.0001) %MON g__dynstat_g_eta_del2        =   2.0076680821893E-06
(PID.TID 0000.0001) %MON g__dynstat_g_uvel_max        =   3.2748830842440E-04
(PID.TID 0000.0001) %MON g__dynstat_g_uvel_min        =  -7.4841645668445E-05
(PID.TID 0000.0001) %MON g__dynstat_g_uvel_mean       =   4.0994864734271E-08
(PID.TID 0000.0001) %MON g__dynstat_g_uvel_sd         =   6.8556633817061E-07
(PID.TID 0000.0001) %MON g__dynstat_g_uvel_del2       =   5.1393137792289E-08
(PID.TID 0000.0001) %MON g__dynstat_g_vvel_max        =   3.7805626690824E-04
(PID.TID 0000.0001) %MON g__dynstat_g_vvel_min        =  -1.1652954989231E-04
(PID.TID 0000.0001) %MON g__dynstat_g_vvel_mean       =  -1.5542304743101E-08
(PID.TID 0000.0001) %MON g__dynstat_g_vvel_sd         =   9.8854030028011E-07
(PID.TID 0000.0001) %MON g__dynstat_g_vvel_del2       =   5.7135622512515E-08
(PID.TID 0000.0001) %MON g__dynstat_g_wvel_max        =   1.8120245951513E-07
(PID.TID 0000.0001) %MON g__dynstat_g_wvel_min        =  -7.3996221967480E-08
(PID.TID 0000.0001) %MON g__dynstat_g_wvel_mean       =   6.1672991862832E-27
(PID.TID 0000.0001) %MON g__dynstat_g_wvel_sd         =   7.5371761604768E-10
(PID.TID 0000.0001) %MON g__dynstat_g_wvel_del2       =   1.0589854011801E-10
(PID.TID 0000.0001) %MON g__dynstat_g_theta_max       =   8.5138292376031E-01
(PID.TID 0000.0001) %MON g__dynstat_g_theta_min       =  -1.6510429990169E-04
(PID.TID 0000.0001) %MON g__dynstat_g_theta_mean      =   3.1229401013321E-06
(PID.TID 0000.0001) %MON g__dynstat_g_theta_sd        =   1.3008742945659E-03
(PID.TID 0000.0001) %MON g__dynstat_g_theta_del2      =   3.5580594032694E-05
(PID.TID 0000.0001) %MON g__dynstat_g_salt_max        =   6.9327914519613E-03
(PID.TID 0000.0001) %MON g__dynstat_g_salt_min        =  -5.9479836156554E-03
(PID.TID 0000.0001) %MON g__dynstat_g_salt_mean       =   1.1256620748654E-10
(PID.TID 0000.0001) %MON g__dynstat_g_salt_sd         =   1.3217570655097E-05
(PID.TID 0000.0001) %MON g__dynstat_g_salt_del2       =   6.5332531320511E-07
(PID.TID 0000.0001) %MON g__dynstat_g_sst_max         =   8.5138292376031E-01
(PID.TID 0000.0001) %MON g__dynstat_g_sst_min         =  -1.1395186952858E-04
(PID.TID 0000.0001) %MON g__dynstat_g_sst_mean        =   1.5507639147539E-04
(PID.TID 0000.0001) %MON g__dynstat_g_sst_sd          =   1.0756363756578E-02
(PID.TID 0000.0001) %MON g__dynstat_g_sst_del2        =   3.4453854006482E-04
(PID.TID 0000.0001) %MON g__dynstat_g_sss_max         =   6.9327914519613E-03
(PID.TID 0000.0001) %MON g__dynstat_g_sss_min         =  -5.9479836156554E-03
(PID.TID 0000.0001) %MON g__dynstat_g_sss_mean        =   3.5644749723657E-07
(PID.TID 0000.0001) %MON g__dynstat_g_sss_sd          =   1.1531160203220E-04
(PID.TID 0000.0001) %MON g__dynstat_g_sss_del2        =   7.3519400723375E-06
(PID.TID 0000.0001) %MON g__extforcing_g_qnet_max     =   0.0000000000000E+00
(PID.TID 0000.0001) %MON g__extforcing_g_qnet_min     =   0.0000000000000E+00
(PID.TID 0000.0001) %MON g__extforcing_g_qnet_mean    =   0.0000000000000E+00
(PID.TID 0000.0001) %MON g__extforcing_g_qnet_sd      =   0.0000000000000E+00
(PID.TID 0000.0001) %MON g__extforcing_g_qnet_del2    =   0.0000000000000E+00
(PID.TID 0000.0001) %MON g__extforcing_g_empmr_max    =   0.0000000000000E+00
(PID.TID 0000.0001) %MON g__extforcing_g_empmr_min    =   0.0000000000000E+00
(PID.TID 0000.0001) %MON g__extforcing_g_empmr_mean   =   0.0000000000000E+00
(PID.TID 0000.0001) %MON g__extforcing_g_empmr_sd     =   0.0000000000000E+00
(PID.TID 0000.0001) %MON g__extforcing_g_empmr_del2   =   0.0000000000000E+00
(PID.TID 0000.0001) %MON g__extforcing_g_fu_max       =   0.0000000000000E+00
(PID.TID 0000.0001) %MON g__extforcing_g_fu_min       =   0.0000000000000E+00
(PID.TID 0000.0001) %MON g__extforcing_g_fu_mean      =   0.0000000000000E+00
(PID.TID 0000.0001) %MON g__extforcing_g_fu_sd        =   0.0000000000000E+00
(PID.TID 0000.0001) %MON g__extforcing_g_fu_del2      =   0.0000000000000E+00
(PID.TID 0000.0001) %MON g__extforcing_g_fv_max       =   0.0000000000000E+00
(PID.TID 0000.0001) %MON g__extforcing_g_fv_min       =   0.0000000000000E+00
(PID.TID 0000.0001) %MON g__extforcing_g_fv_mean      =   0.0000000000000E+00
(PID.TID 0000.0001) %MON g__extforcing_g_fv_sd        =   0.0000000000000E+00
(PID.TID 0000.0001) %MON g__extforcing_g_fv_del2      =   0.0000000000000E+00
(PID.TID 0000.0001) %MON g__g_vcfl_g_uvel_max         =   1.1541564432960E-04
(PID.TID 0000.0001) %MON g__g_vcfl_g_vvel_max         =   3.6725134683357E-05
(PID.TID 0000.0001) %MON g__g_vcfl_g_wvel_max         =   1.1730739806892E-04
(PID.TID 0000.0001) %MON g__g_vcfl_g_W_hf_max         =   2.8153775536542E-04
(PID.TID 0000.0001) // =======================================================
(PID.TID 0000.0001) // End MONITOR dynamic field statistics
(PID.TID 0000.0001) // =======================================================
 cg2d: Sum(rhs),rhsMax =   1.04766026436365E-12  1.48105645434218E-02
 cg2d: Sum(rhs),rhsMax =   2.19706197679415E-13  7.83757970972503E+00
(PID.TID 0000.0001) // =======================================================
(PID.TID 0000.0001) // Begin MONITOR dynamic field statistics
(PID.TID 0000.0001) // =======================================================
(PID.TID 0000.0001) %MON g__time_tsnumber             =                    47
(PID.TID 0000.0001) %MON g__time_secondsf             =   2.0304000000000E+06
(PID.TID 0000.0001) %MON g__dynstat_g_eta_max         =   4.4740342733201E-03
(PID.TID 0000.0001) %MON g__dynstat_g_eta_min         =  -3.8325620158402E-05
(PID.TID 0000.0001) %MON g__dynstat_g_eta_mean        =  -9.2518126767735E-19
(PID.TID 0000.0001) %MON g__dynstat_g_eta_sd          =   5.6699586784926E-05
(PID.TID 0000.0001) %MON g__dynstat_g_eta_del2        =   1.9885983958759E-06
(PID.TID 0000.0001) %MON g__dynstat_g_uvel_max        =   3.5552035550274E-04
(PID.TID 0000.0001) %MON g__dynstat_g_uvel_min        =  -8.1159565549537E-05
(PID.TID 0000.0001) %MON g__dynstat_g_uvel_mean       =   4.2643204351366E-08
(PID.TID 0000.0001) %MON g__dynstat_g_uvel_sd         =   7.4188758935922E-07
(PID.TID 0000.0001) %MON g__dynstat_g_uvel_del2       =   5.3066683997861E-08
(PID.TID 0000.0001) %MON g__dynstat_g_vvel_max        =   3.9312152539960E-04
(PID.TID 0000.0001) %MON g__dynstat_g_vvel_min        =  -1.1602310057718E-04
(PID.TID 0000.0001) %MON g__dynstat_g_vvel_mean       =  -1.2434240033318E-08
(PID.TID 0000.0001) %MON g__dynstat_g_vvel_sd         =   1.0223056562895E-06
(PID.TID 0000.0001) %MON g__dynstat_g_vvel_del2       =   5.7514205187847E-08
(PID.TID 0000.0001) %MON g__dynstat_g_wvel_max        =   1.8621504406804E-07
(PID.TID 0000.0001) %MON g__dynstat_g_wvel_min        =  -8.0101572422767E-08
(PID.TID 0000.0001) %MON g__dynstat_g_wvel_mean       =   2.4306782443899E-28
(PID.TID 0000.0001) %MON g__dynstat_g_wvel_sd         =   7.7230342070534E-10
(PID.TID 0000.0001) %MON g__dynstat_g_wvel_del2       =   1.0688532332759E-10
(PID.TID 0000.0001) %MON g__dynstat_g_theta_max       =   8.4256478561132E-01
(PID.TID 0000.0001) %MON g__dynstat_g_theta_min       =  -1.7070797287148E-04
(PID.TID 0000.0001) %MON g__dynstat_g_theta_mean      =   3.1122444424065E-06
(PID.TID 0000.0001) %MON g__dynstat_g_theta_sd        =   1.2892630201759E-03
(PID.TID 0000.0001) %MON g__dynstat_g_theta_del2      =   3.5291269537937E-05
(PID.TID 0000.0001) %MON g__dynstat_g_salt_max        =   6.9989221900340E-03
(PID.TID 0000.0001) %MON g__dynstat_g_salt_min        =  -5.9943814003748E-03
(PID.TID 0000.0001) %MON g__dynstat_g_salt_mean       =   3.9344186787799E-10
(PID.TID 0000.0001) %MON g__dynstat_g_salt_sd         =   1.3335565173166E-05
(PID.TID 0000.0001) %MON g__dynstat_g_salt_del2       =   6.6031083590414E-07
(PID.TID 0000.0001) %MON g__dynstat_g_sst_max         =   8.4256478561132E-01
(PID.TID 0000.0001) %MON g__dynstat_g_sst_min         =  -1.1620789123874E-04
(PID.TID 0000.0001) %MON g__dynstat_g_sst_mean        =   1.5370767645238E-04
(PID.TID 0000.0001) %MON g__dynstat_g_sst_sd          =   1.0646106807487E-02
(PID.TID 0000.0001) %MON g__dynstat_g_sst_del2        =   3.4074340524446E-04
(PID.TID 0000.0001) %MON g__dynstat_g_sss_max         =   6.9989221900340E-03
(PID.TID 0000.0001) %MON g__dynstat_g_sss_min         =  -5.9943814003748E-03
(PID.TID 0000.0001) %MON g__dynstat_g_sss_mean        =   3.7034863112645E-07
(PID.TID 0000.0001) %MON g__dynstat_g_sss_sd          =   1.1633212736788E-04
(PID.TID 0000.0001) %MON g__dynstat_g_sss_del2        =   7.4200394937551E-06
(PID.TID 0000.0001) %MON g__extforcing_g_qnet_max     =   0.0000000000000E+00
(PID.TID 0000.0001) %MON g__extforcing_g_qnet_min     =   0.0000000000000E+00
(PID.TID 0000.0001) %MON g__extforcing_g_qnet_mean    =   0.0000000000000E+00
(PID.TID 0000.0001) %MON g__extforcing_g_qnet_sd      =   0.0000000000000E+00
(PID.TID 0000.0001) %MON g__extforcing_g_qnet_del2    =   0.0000000000000E+00
(PID.TID 0000.0001) %MON g__extforcing_g_empmr_max    =   0.0000000000000E+00
(PID.TID 0000.0001) %MON g__extforcing_g_empmr_min    =   0.0000000000000E+00
(PID.TID 0000.0001) %MON g__extforcing_g_empmr_mean   =   0.0000000000000E+00
(PID.TID 0000.0001) %MON g__extforcing_g_empmr_sd     =   0.0000000000000E+00
(PID.TID 0000.0001) %MON g__extforcing_g_empmr_del2   =   0.0000000000000E+00
(PID.TID 0000.0001) %MON g__extforcing_g_fu_max       =   0.0000000000000E+00
(PID.TID 0000.0001) %MON g__extforcing_g_fu_min       =   0.0000000000000E+00
(PID.TID 0000.0001) %MON g__extforcing_g_fu_mean      =   0.0000000000000E+00
(PID.TID 0000.0001) %MON g__extforcing_g_fu_sd        =   0.0000000000000E+00
(PID.TID 0000.0001) %MON g__extforcing_g_fu_del2      =   0.0000000000000E+00
(PID.TID 0000.0001) %MON g__extforcing_g_fv_max       =   0.0000000000000E+00
(PID.TID 0000.0001) %MON g__extforcing_g_fv_min       =   0.0000000000000E+00
(PID.TID 0000.0001) %MON g__extforcing_g_fv_mean      =   0.0000000000000E+00
(PID.TID 0000.0001) %MON g__extforcing_g_fv_sd        =   0.0000000000000E+00
(PID.TID 0000.0001) %MON g__extforcing_g_fv_del2      =   0.0000000000000E+00
(PID.TID 0000.0001) %MON g__g_vcfl_g_uvel_max         =   1.2529488793067E-04
(PID.TID 0000.0001) %MON g__g_vcfl_g_vvel_max         =   3.8188603736944E-05
(PID.TID 0000.0001) %MON g__g_vcfl_g_wvel_max         =   1.1664581504756E-04
(PID.TID 0000.0001) %MON g__g_vcfl_g_W_hf_max         =   2.7994995611414E-04
(PID.TID 0000.0001) // =======================================================
(PID.TID 0000.0001) // End MONITOR dynamic field statistics
(PID.TID 0000.0001) // =======================================================
 cg2d: Sum(rhs),rhsMax =   9.91989344415481E-13  1.46473404516002E-02
 cg2d: Sum(rhs),rhsMax =   3.14401282786037E-14  7.97661649749666E+00
(PID.TID 0000.0001) // =======================================================
(PID.TID 0000.0001) // Begin MONITOR dynamic field statistics
(PID.TID 0000.0001) // =======================================================
(PID.TID 0000.0001) %MON g__time_tsnumber             =                    48
(PID.TID 0000.0001) %MON g__time_secondsf             =   2.0736000000000E+06
(PID.TID 0000.0001) %MON g__dynstat_g_eta_max         =   4.4213135868964E-03
(PID.TID 0000.0001) %MON g__dynstat_g_eta_min         =  -2.3311472350593E-05
(PID.TID 0000.0001) %MON g__dynstat_g_eta_mean        =  -8.7187666056319E-19
(PID.TID 0000.0001) %MON g__dynstat_g_eta_sd          =   5.6015415934415E-05
(PID.TID 0000.0001) %MON g__dynstat_g_eta_del2        =   1.9684888839511E-06
(PID.TID 0000.0001) %MON g__dynstat_g_uvel_max        =   3.6971892614778E-04
(PID.TID 0000.0001) %MON g__dynstat_g_uvel_min        =  -8.6852915762446E-05
(PID.TID 0000.0001) %MON g__dynstat_g_uvel_mean       =   4.3916363468294E-08
(PID.TID 0000.0001) %MON g__dynstat_g_uvel_sd         =   7.7481740328911E-07
(PID.TID 0000.0001) %MON g__dynstat_g_uvel_del2       =   5.4202416163299E-08
(PID.TID 0000.0001) %MON g__dynstat_g_vvel_max        =   4.0432608174005E-04
(PID.TID 0000.0001) %MON g__dynstat_g_vvel_min        =  -1.1559890620543E-04
(PID.TID 0000.0001) %MON g__dynstat_g_vvel_mean       =  -8.9228035004623E-09
(PID.TID 0000.0001) %MON g__dynstat_g_vvel_sd         =   1.0544638453746E-06
(PID.TID 0000.0001) %MON g__dynstat_g_vvel_del2       =   5.7966975168792E-08
(PID.TID 0000.0001) %MON g__dynstat_g_wvel_max        =   1.8671223826225E-07
(PID.TID 0000.0001) %MON g__dynstat_g_wvel_min        =  -8.2540115170680E-08
(PID.TID 0000.0001) %MON g__dynstat_g_wvel_mean       =  -3.6847787223180E-27
(PID.TID 0000.0001) %MON g__dynstat_g_wvel_sd         =   7.7049525701774E-10
(PID.TID 0000.0001) %MON g__dynstat_g_wvel_del2       =   1.0642246691396E-10
(PID.TID 0000.0001) %MON g__dynstat_g_theta_max       =   8.3275416164741E-01
(PID.TID 0000.0001) %MON g__dynstat_g_theta_min       =  -1.7723886512881E-04
(PID.TID 0000.0001) %MON g__dynstat_g_theta_mean      =   3.0947310842433E-06
(PID.TID 0000.0001) %MON g__dynstat_g_theta_sd        =   1.2757874090752E-03
(PID.TID 0000.0001) %MON g__dynstat_g_theta_del2      =   3.4942776449286E-05
(PID.TID 0000.0001) %MON g__dynstat_g_salt_max        =   7.0543791222609E-03
(PID.TID 0000.0001) %MON g__dynstat_g_salt_min        =  -6.0263199434913E-03
(PID.TID 0000.0001) %MON g__dynstat_g_salt_mean       =   6.4341069239799E-10
(PID.TID 0000.0001) %MON g__dynstat_g_salt_sd         =   1.3428808662091E-05
(PID.TID 0000.0001) %MON g__dynstat_g_salt_del2       =   6.6723161143817E-07
(PID.TID 0000.0001) %MON g__dynstat_g_sst_max         =   8.3275416164741E-01
(PID.TID 0000.0001) %MON g__dynstat_g_sst_min         =  -1.1672975214584E-04
(PID.TID 0000.0001) %MON g__dynstat_g_sst_mean        =   1.5212797817591E-04
(PID.TID 0000.0001) %MON g__dynstat_g_sst_sd          =   1.0523097886274E-02
(PID.TID 0000.0001) %MON g__dynstat_g_sst_del2        =   3.3658844859090E-04
(PID.TID 0000.0001) %MON g__dynstat_g_sss_max         =   7.0543791222609E-03
(PID.TID 0000.0001) %MON g__dynstat_g_sss_min         =  -6.0263199434913E-03
(PID.TID 0000.0001) %MON g__dynstat_g_sss_mean        =   3.8356276527051E-07
(PID.TID 0000.0001) %MON g__dynstat_g_sss_sd          =   1.1713085267153E-04
(PID.TID 0000.0001) %MON g__dynstat_g_sss_del2        =   7.4755877012871E-06
(PID.TID 0000.0001) %MON g__extforcing_g_qnet_max     =   0.0000000000000E+00
(PID.TID 0000.0001) %MON g__extforcing_g_qnet_min     =   0.0000000000000E+00
(PID.TID 0000.0001) %MON g__extforcing_g_qnet_mean    =   0.0000000000000E+00
(PID.TID 0000.0001) %MON g__extforcing_g_qnet_sd      =   0.0000000000000E+00
(PID.TID 0000.0001) %MON g__extforcing_g_qnet_del2    =   0.0000000000000E+00
(PID.TID 0000.0001) %MON g__extforcing_g_empmr_max    =   0.0000000000000E+00
(PID.TID 0000.0001) %MON g__extforcing_g_empmr_min    =   0.0000000000000E+00
(PID.TID 0000.0001) %MON g__extforcing_g_empmr_mean   =   0.0000000000000E+00
(PID.TID 0000.0001) %MON g__extforcing_g_empmr_sd     =   0.0000000000000E+00
(PID.TID 0000.0001) %MON g__extforcing_g_empmr_del2   =   0.0000000000000E+00
(PID.TID 0000.0001) %MON g__extforcing_g_fu_max       =   0.0000000000000E+00
(PID.TID 0000.0001) %MON g__extforcing_g_fu_min       =   0.0000000000000E+00
(PID.TID 0000.0001) %MON g__extforcing_g_fu_mean      =   0.0000000000000E+00
(PID.TID 0000.0001) %MON g__extforcing_g_fu_sd        =   0.0000000000000E+00
(PID.TID 0000.0001) %MON g__extforcing_g_fu_del2      =   0.0000000000000E+00
(PID.TID 0000.0001) %MON g__extforcing_g_fv_max       =   0.0000000000000E+00
(PID.TID 0000.0001) %MON g__extforcing_g_fv_min       =   0.0000000000000E+00
(PID.TID 0000.0001) %MON g__extforcing_g_fv_mean      =   0.0000000000000E+00
(PID.TID 0000.0001) %MON g__extforcing_g_fv_sd        =   0.0000000000000E+00
(PID.TID 0000.0001) %MON g__extforcing_g_fv_del2      =   0.0000000000000E+00
(PID.TID 0000.0001) %MON g__g_vcfl_g_uvel_max         =   1.3029884421674E-04
(PID.TID 0000.0001) %MON g__g_vcfl_g_vvel_max         =   3.9277036535679E-05
(PID.TID 0000.0001) %MON g__g_vcfl_g_wvel_max         =   1.1367403112357E-04
(PID.TID 0000.0001) %MON g__g_vcfl_g_W_hf_max         =   2.7281767469657E-04
(PID.TID 0000.0001) // =======================================================
(PID.TID 0000.0001) // End MONITOR dynamic field statistics
(PID.TID 0000.0001) // =======================================================
 cg2d: Sum(rhs),rhsMax =   9.51209609035524E-13  1.44518739481752E-02
 cg2d: Sum(rhs),rhsMax =   1.43003664465624E-13  8.05769528537580E+00
(PID.TID 0000.0001) // =======================================================
(PID.TID 0000.0001) // Begin MONITOR dynamic field statistics
(PID.TID 0000.0001) // =======================================================
(PID.TID 0000.0001) %MON g__time_tsnumber             =                    49
(PID.TID 0000.0001) %MON g__time_secondsf             =   2.1168000000000E+06
(PID.TID 0000.0001) %MON g__dynstat_g_eta_max         =   4.3588011505301E-03
(PID.TID 0000.0001) %MON g__dynstat_g_eta_min         =  -2.3540787467395E-05
(PID.TID 0000.0001) %MON g__dynstat_g_eta_mean        =  -8.9639057906142E-19
(PID.TID 0000.0001) %MON g__dynstat_g_eta_sd          =   5.5210425421776E-05
(PID.TID 0000.0001) %MON g__dynstat_g_eta_del2        =   1.9473728187441E-06
(PID.TID 0000.0001) %MON g__dynstat_g_uvel_max        =   3.7014451682435E-04
(PID.TID 0000.0001) %MON g__dynstat_g_uvel_min        =  -9.1729601440634E-05
(PID.TID 0000.0001) %MON g__dynstat_g_uvel_mean       =   4.4742199279610E-08
(PID.TID 0000.0001) %MON g__dynstat_g_uvel_sd         =   7.8353262663485E-07
(PID.TID 0000.0001) %MON g__dynstat_g_uvel_del2       =   5.4818531064362E-08
(PID.TID 0000.0001) %MON g__dynstat_g_vvel_max        =   4.1149056961943E-04
(PID.TID 0000.0001) %MON g__dynstat_g_vvel_min        =  -1.1517463742406E-04
(PID.TID 0000.0001) %MON g__dynstat_g_vvel_mean       =  -5.1022269992528E-09
(PID.TID 0000.0001) %MON g__dynstat_g_vvel_sd         =   1.0834448472488E-06
(PID.TID 0000.0001) %MON g__dynstat_g_vvel_del2       =   5.8243277844405E-08
(PID.TID 0000.0001) %MON g__dynstat_g_wvel_max        =   1.8282488107893E-07
(PID.TID 0000.0001) %MON g__dynstat_g_wvel_min        =  -8.1480936508146E-08
(PID.TID 0000.0001) %MON g__dynstat_g_wvel_mean       =   2.6838957692015E-27
(PID.TID 0000.0001) %MON g__dynstat_g_wvel_sd         =   7.5040214830565E-10
(PID.TID 0000.0001) %MON g__dynstat_g_wvel_del2       =   1.0495300091231E-10
(PID.TID 0000.0001) %MON g__dynstat_g_theta_max       =   8.2217611978426E-01
(PID.TID 0000.0001) %MON g__dynstat_g_theta_min       =  -1.8472350016626E-04
(PID.TID 0000.0001) %MON g__dynstat_g_theta_mean      =   3.0717059156447E-06
(PID.TID 0000.0001) %MON g__dynstat_g_theta_sd        =   1.2608445810530E-03
(PID.TID 0000.0001) %MON g__dynstat_g_theta_del2      =   3.4547358266988E-05
(PID.TID 0000.0001) %MON g__dynstat_g_salt_max        =   7.1015361221334E-03
(PID.TID 0000.0001) %MON g__dynstat_g_salt_min        =  -6.0461706696220E-03
(PID.TID 0000.0001) %MON g__dynstat_g_salt_mean       =   8.6460832194017E-10
(PID.TID 0000.0001) %MON g__dynstat_g_salt_sd         =   1.3502239609912E-05
(PID.TID 0000.0001) %MON g__dynstat_g_salt_del2       =   6.7372398699801E-07
(PID.TID 0000.0001) %MON g__dynstat_g_sst_max         =   8.2217611978426E-01
(PID.TID 0000.0001) %MON g__dynstat_g_sst_min         =  -1.1568065365857E-04
(PID.TID 0000.0001) %MON g__dynstat_g_sst_mean        =   1.5038646275051E-04
(PID.TID 0000.0001) %MON g__dynstat_g_sst_sd          =   1.0390208371394E-02
(PID.TID 0000.0001) %MON g__dynstat_g_sst_del2        =   3.3215528165181E-04
(PID.TID 0000.0001) %MON g__dynstat_g_sss_max         =   7.1015361221334E-03
(PID.TID 0000.0001) %MON g__dynstat_g_sss_min         =  -6.0461706696220E-03
(PID.TID 0000.0001) %MON g__dynstat_g_sss_mean        =   3.9598635841045E-07
(PID.TID 0000.0001) %MON g__dynstat_g_sss_sd          =   1.1775041353137E-04
(PID.TID 0000.0001) %MON g__dynstat_g_sss_del2        =   7.5210155055157E-06
(PID.TID 0000.0001) %MON g__extforcing_g_qnet_max     =   0.0000000000000E+00
(PID.TID 0000.0001) %MON g__extforcing_g_qnet_min     =   0.0000000000000E+00
(PID.TID 0000.0001) %MON g__extforcing_g_qnet_mean    =   0.0000000000000E+00
(PID.TID 0000.0001) %MON g__extforcing_g_qnet_sd      =   0.0000000000000E+00
(PID.TID 0000.0001) %MON g__extforcing_g_qnet_del2    =   0.0000000000000E+00
(PID.TID 0000.0001) %MON g__extforcing_g_empmr_max    =   0.0000000000000E+00
(PID.TID 0000.0001) %MON g__extforcing_g_empmr_min    =   0.0000000000000E+00
(PID.TID 0000.0001) %MON g__extforcing_g_empmr_mean   =   0.0000000000000E+00
(PID.TID 0000.0001) %MON g__extforcing_g_empmr_sd     =   0.0000000000000E+00
(PID.TID 0000.0001) %MON g__extforcing_g_empmr_del2   =   0.0000000000000E+00
(PID.TID 0000.0001) %MON g__extforcing_g_fu_max       =   0.0000000000000E+00
(PID.TID 0000.0001) %MON g__extforcing_g_fu_min       =   0.0000000000000E+00
(PID.TID 0000.0001) %MON g__extforcing_g_fu_mean      =   0.0000000000000E+00
(PID.TID 0000.0001) %MON g__extforcing_g_fu_sd        =   0.0000000000000E+00
(PID.TID 0000.0001) %MON g__extforcing_g_fu_del2      =   0.0000000000000E+00
(PID.TID 0000.0001) %MON g__extforcing_g_fv_max       =   0.0000000000000E+00
(PID.TID 0000.0001) %MON g__extforcing_g_fv_min       =   0.0000000000000E+00
(PID.TID 0000.0001) %MON g__extforcing_g_fv_mean      =   0.0000000000000E+00
(PID.TID 0000.0001) %MON g__extforcing_g_fv_sd        =   0.0000000000000E+00
(PID.TID 0000.0001) %MON g__extforcing_g_fv_del2      =   0.0000000000000E+00
(PID.TID 0000.0001) %MON g__g_vcfl_g_uvel_max         =   1.3044883376108E-04
(PID.TID 0000.0001) %MON g__g_vcfl_g_vvel_max         =   3.9973009080875E-05
(PID.TID 0000.0001) %MON g__g_vcfl_g_wvel_max         =   1.0857434214953E-04
(PID.TID 0000.0001) %MON g__g_vcfl_g_W_hf_max         =   2.6057842115886E-04
(PID.TID 0000.0001) // =======================================================
(PID.TID 0000.0001) // End MONITOR dynamic field statistics
(PID.TID 0000.0001) // =======================================================
 cg2d: Sum(rhs),rhsMax =   9.89679395497417E-13  1.42360802702546E-02
 cg2d: Sum(rhs),rhsMax =   2.72538935863764E-13  8.09041694797476E+00
(PID.TID 0000.0001) // =======================================================
(PID.TID 0000.0001) // Begin MONITOR dynamic field statistics
(PID.TID 0000.0001) // =======================================================
(PID.TID 0000.0001) %MON g__time_tsnumber             =                    50
(PID.TID 0000.0001) %MON g__time_secondsf             =   2.1600000000000E+06
(PID.TID 0000.0001) %MON g__dynstat_g_eta_max         =   4.2904192634139E-03
(PID.TID 0000.0001) %MON g__dynstat_g_eta_min         =  -2.9484394021510E-05
(PID.TID 0000.0001) %MON g__dynstat_g_eta_mean        =  -9.1653273373244E-19
(PID.TID 0000.0001) %MON g__dynstat_g_eta_sd          =   5.4335808944201E-05
(PID.TID 0000.0001) %MON g__dynstat_g_eta_del2        =   1.9263444876312E-06
(PID.TID 0000.0001) %MON g__dynstat_g_uvel_max        =   3.5735349134546E-04
(PID.TID 0000.0001) %MON g__dynstat_g_uvel_min        =  -9.5658075331709E-05
(PID.TID 0000.0001) %MON g__dynstat_g_uvel_mean       =   4.5067558368022E-08
(PID.TID 0000.0001) %MON g__dynstat_g_uvel_sd         =   7.6862409036983E-07
(PID.TID 0000.0001) %MON g__dynstat_g_uvel_del2       =   5.4867035999010E-08
(PID.TID 0000.0001) %MON g__dynstat_g_vvel_max        =   4.1467413094628E-04
(PID.TID 0000.0001) %MON g__dynstat_g_vvel_min        =  -1.1465107829088E-04
(PID.TID 0000.0001) %MON g__dynstat_g_vvel_mean       =  -1.0749740086333E-09
(PID.TID 0000.0001) %MON g__dynstat_g_vvel_sd         =   1.1079510618198E-06
(PID.TID 0000.0001) %MON g__dynstat_g_vvel_del2       =   5.8529932994963E-08
(PID.TID 0000.0001) %MON g__dynstat_g_wvel_max        =   1.7482982551800E-07
(PID.TID 0000.0001) %MON g__dynstat_g_wvel_min        =  -7.7271641188782E-08
(PID.TID 0000.0001) %MON g__dynstat_g_wvel_mean       =  -1.5811658226915E-27
(PID.TID 0000.0001) %MON g__dynstat_g_wvel_sd         =   7.1723492876585E-10
(PID.TID 0000.0001) %MON g__dynstat_g_wvel_del2       =   1.0326280173395E-10
(PID.TID 0000.0001) %MON g__dynstat_g_theta_max       =   8.1110453475318E-01
(PID.TID 0000.0001) %MON g__dynstat_g_theta_min       =  -1.9313070340437E-04
(PID.TID 0000.0001) %MON g__dynstat_g_theta_mean      =   3.0448306046465E-06
(PID.TID 0000.0001) %MON g__dynstat_g_theta_sd        =   1.2449286860616E-03
(PID.TID 0000.0001) %MON g__dynstat_g_theta_del2      =   3.4120570980825E-05
(PID.TID 0000.0001) %MON g__dynstat_g_salt_max        =   7.1431765854118E-03
(PID.TID 0000.0001) %MON g__dynstat_g_salt_min        =  -6.0570797195327E-03
(PID.TID 0000.0001) %MON g__dynstat_g_salt_mean       =   1.0652806301547E-09
(PID.TID 0000.0001) %MON g__dynstat_g_salt_sd         =   1.3561888381000E-05
(PID.TID 0000.0001) %MON g__dynstat_g_salt_del2       =   6.7980175766525E-07
(PID.TID 0000.0001) %MON g__dynstat_g_sst_max         =   8.1110453475318E-01
(PID.TID 0000.0001) %MON g__dynstat_g_sst_min         =  -1.1329884274714E-04
(PID.TID 0000.0001) %MON g__dynstat_g_sst_mean        =   1.4853753214163E-04
(PID.TID 0000.0001) %MON g__dynstat_g_sst_sd          =   1.0250937867419E-02
(PID.TID 0000.0001) %MON g__dynstat_g_sst_del2        =   3.2754886758321E-04
(PID.TID 0000.0001) %MON g__dynstat_g_sss_max         =   7.1431765854118E-03
(PID.TID 0000.0001) %MON g__dynstat_g_sss_min         =  -6.0570797195327E-03
(PID.TID 0000.0001) %MON g__dynstat_g_sss_mean        =   4.0732363878217E-07
(PID.TID 0000.0001) %MON g__dynstat_g_sss_sd          =   1.1824379212531E-04
(PID.TID 0000.0001) %MON g__dynstat_g_sss_del2        =   7.5587340324083E-06
(PID.TID 0000.0001) %MON g__extforcing_g_qnet_max     =   0.0000000000000E+00
(PID.TID 0000.0001) %MON g__extforcing_g_qnet_min     =   0.0000000000000E+00
(PID.TID 0000.0001) %MON g__extforcing_g_qnet_mean    =   0.0000000000000E+00
(PID.TID 0000.0001) %MON g__extforcing_g_qnet_sd      =   0.0000000000000E+00
(PID.TID 0000.0001) %MON g__extforcing_g_qnet_del2    =   0.0000000000000E+00
(PID.TID 0000.0001) %MON g__extforcing_g_empmr_max    =   0.0000000000000E+00
(PID.TID 0000.0001) %MON g__extforcing_g_empmr_min    =   0.0000000000000E+00
(PID.TID 0000.0001) %MON g__extforcing_g_empmr_mean   =   0.0000000000000E+00
(PID.TID 0000.0001) %MON g__extforcing_g_empmr_sd     =   0.0000000000000E+00
(PID.TID 0000.0001) %MON g__extforcing_g_empmr_del2   =   0.0000000000000E+00
(PID.TID 0000.0001) %MON g__extforcing_g_fu_max       =   0.0000000000000E+00
(PID.TID 0000.0001) %MON g__extforcing_g_fu_min       =   0.0000000000000E+00
(PID.TID 0000.0001) %MON g__extforcing_g_fu_mean      =   0.0000000000000E+00
(PID.TID 0000.0001) %MON g__extforcing_g_fu_sd        =   0.0000000000000E+00
(PID.TID 0000.0001) %MON g__extforcing_g_fu_del2      =   0.0000000000000E+00
(PID.TID 0000.0001) %MON g__extforcing_g_fv_max       =   0.0000000000000E+00
(PID.TID 0000.0001) %MON g__extforcing_g_fv_min       =   0.0000000000000E+00
(PID.TID 0000.0001) %MON g__extforcing_g_fv_mean      =   0.0000000000000E+00
(PID.TID 0000.0001) %MON g__extforcing_g_fv_sd        =   0.0000000000000E+00
(PID.TID 0000.0001) %MON g__extforcing_g_fv_del2      =   0.0000000000000E+00
(PID.TID 0000.0001) %MON g__g_vcfl_g_uvel_max         =   1.2594093406113E-04
(PID.TID 0000.0001) %MON g__g_vcfl_g_vvel_max         =   4.0282266534687E-05
(PID.TID 0000.0001) %MON g__g_vcfl_g_wvel_max         =   1.0157990300105E-04
(PID.TID 0000.0001) %MON g__g_vcfl_g_W_hf_max         =   2.4379176720251E-04
(PID.TID 0000.0001) // =======================================================
(PID.TID 0000.0001) // End MONITOR dynamic field statistics
(PID.TID 0000.0001) // =======================================================
 myIter=  50
(PID.TID 0000.0001) // Model state written, timestep        50
(PID.TID 0000.0001) 
 cg2d: Sum(rhs),rhsMax =   1.03198829554221E-12  1.40120662074092E-02
 cg2d: Sum(rhs),rhsMax =   3.17079695832945E-13  8.08616437912500E+00
(PID.TID 0000.0001) // =======================================================
(PID.TID 0000.0001) // Begin MONITOR dynamic field statistics
(PID.TID 0000.0001) // =======================================================
(PID.TID 0000.0001) %MON g__time_tsnumber             =                    51
(PID.TID 0000.0001) %MON g__time_secondsf             =   2.2032000000000E+06
(PID.TID 0000.0001) %MON g__dynstat_g_eta_max         =   4.2200322602419E-03
(PID.TID 0000.0001) %MON g__dynstat_g_eta_min         =  -3.5589268082995E-05
(PID.TID 0000.0001) %MON g__dynstat_g_eta_mean        =  -9.7448290977239E-19
(PID.TID 0000.0001) %MON g__dynstat_g_eta_sd          =   5.3440424842451E-05
(PID.TID 0000.0001) %MON g__dynstat_g_eta_del2        =   1.9010648739174E-06
(PID.TID 0000.0001) %MON g__dynstat_g_uvel_max        =   3.3237305691011E-04
(PID.TID 0000.0001) %MON g__dynstat_g_uvel_min        =  -9.8567644677160E-05
(PID.TID 0000.0001) %MON g__dynstat_g_uvel_mean       =   4.4860327107271E-08
(PID.TID 0000.0001) %MON g__dynstat_g_uvel_sd         =   7.3195798501642E-07
(PID.TID 0000.0001) %MON g__dynstat_g_uvel_del2       =   5.4199982869178E-08
(PID.TID 0000.0001) %MON g__dynstat_g_vvel_max        =   4.3173443347183E-04
(PID.TID 0000.0001) %MON g__dynstat_g_vvel_min        =  -1.1393307785135E-04
(PID.TID 0000.0001) %MON g__dynstat_g_vvel_mean       =   3.0484216554407E-09
(PID.TID 0000.0001) %MON g__dynstat_g_vvel_sd         =   1.1270100866588E-06
(PID.TID 0000.0001) %MON g__dynstat_g_vvel_del2       =   5.8745097030750E-08
(PID.TID 0000.0001) %MON g__dynstat_g_wvel_max        =   1.6314748633338E-07
(PID.TID 0000.0001) %MON g__dynstat_g_wvel_min        =  -7.0379788455854E-08
(PID.TID 0000.0001) %MON g__dynstat_g_wvel_mean       =   1.4743314765288E-27
(PID.TID 0000.0001) %MON g__dynstat_g_wvel_sd         =   6.7817182522589E-10
(PID.TID 0000.0001) %MON g__dynstat_g_wvel_del2       =   1.0244763113267E-10
(PID.TID 0000.0001) %MON g__dynstat_g_theta_max       =   7.9984368160361E-01
(PID.TID 0000.0001) %MON g__dynstat_g_theta_min       =  -2.0237563003546E-04
(PID.TID 0000.0001) %MON g__dynstat_g_theta_mean      =   3.0159980965387E-06
(PID.TID 0000.0001) %MON g__dynstat_g_theta_sd        =   1.2285960255133E-03
(PID.TID 0000.0001) %MON g__dynstat_g_theta_del2      =   3.3679949933214E-05
(PID.TID 0000.0001) %MON g__dynstat_g_salt_max        =   7.1823243357317E-03
(PID.TID 0000.0001) %MON g__dynstat_g_salt_min        =  -6.0627841832864E-03
(PID.TID 0000.0001) %MON g__dynstat_g_salt_mean       =   1.2575196937670E-09
(PID.TID 0000.0001) %MON g__dynstat_g_salt_sd         =   1.3614474854558E-05
(PID.TID 0000.0001) %MON g__dynstat_g_salt_del2       =   6.8565714795402E-07
(PID.TID 0000.0001) %MON g__dynstat_g_sst_max         =   7.9984368160361E-01
(PID.TID 0000.0001) %MON g__dynstat_g_sst_min         =  -1.0985789895255E-04
(PID.TID 0000.0001) %MON g__dynstat_g_sst_mean        =   1.4664352543836E-04
(PID.TID 0000.0001) %MON g__dynstat_g_sst_sd          =   1.0109177561769E-02
(PID.TID 0000.0001) %MON g__dynstat_g_sst_del2        =   3.2288188645416E-04
(PID.TID 0000.0001) %MON g__dynstat_g_sss_max         =   7.1823243357317E-03
(PID.TID 0000.0001) %MON g__dynstat_g_sss_min         =  -6.0627841832864E-03
(PID.TID 0000.0001) %MON g__dynstat_g_sss_mean        =   4.1759811018037E-07
(PID.TID 0000.0001) %MON g__dynstat_g_sss_sd          =   1.1867108892324E-04
(PID.TID 0000.0001) %MON g__dynstat_g_sss_del2        =   7.5925449693736E-06
(PID.TID 0000.0001) %MON g__extforcing_g_qnet_max     =   0.0000000000000E+00
(PID.TID 0000.0001) %MON g__extforcing_g_qnet_min     =   0.0000000000000E+00
(PID.TID 0000.0001) %MON g__extforcing_g_qnet_mean    =   0.0000000000000E+00
(PID.TID 0000.0001) %MON g__extforcing_g_qnet_sd      =   0.0000000000000E+00
(PID.TID 0000.0001) %MON g__extforcing_g_qnet_del2    =   0.0000000000000E+00
(PID.TID 0000.0001) %MON g__extforcing_g_empmr_max    =   0.0000000000000E+00
(PID.TID 0000.0001) %MON g__extforcing_g_empmr_min    =   0.0000000000000E+00
(PID.TID 0000.0001) %MON g__extforcing_g_empmr_mean   =   0.0000000000000E+00
(PID.TID 0000.0001) %MON g__extforcing_g_empmr_sd     =   0.0000000000000E+00
(PID.TID 0000.0001) %MON g__extforcing_g_empmr_del2   =   0.0000000000000E+00
(PID.TID 0000.0001) %MON g__extforcing_g_fu_max       =   0.0000000000000E+00
(PID.TID 0000.0001) %MON g__extforcing_g_fu_min       =   0.0000000000000E+00
(PID.TID 0000.0001) %MON g__extforcing_g_fu_mean      =   0.0000000000000E+00
(PID.TID 0000.0001) %MON g__extforcing_g_fu_sd        =   0.0000000000000E+00
(PID.TID 0000.0001) %MON g__extforcing_g_fu_del2      =   0.0000000000000E+00
(PID.TID 0000.0001) %MON g__extforcing_g_fv_max       =   0.0000000000000E+00
(PID.TID 0000.0001) %MON g__extforcing_g_fv_min       =   0.0000000000000E+00
(PID.TID 0000.0001) %MON g__extforcing_g_fv_mean      =   0.0000000000000E+00
(PID.TID 0000.0001) %MON g__extforcing_g_fv_sd        =   0.0000000000000E+00
(PID.TID 0000.0001) %MON g__extforcing_g_fv_del2      =   0.0000000000000E+00
(PID.TID 0000.0001) %MON g__g_vcfl_g_uvel_max         =   1.1713716042457E-04
(PID.TID 0000.0001) %MON g__g_vcfl_g_vvel_max         =   4.1939538117866E-05
(PID.TID 0000.0001) %MON g__g_vcfl_g_wvel_max         =   1.0135728456770E-04
(PID.TID 0000.0001) %MON g__g_vcfl_g_W_hf_max         =   2.2313821564506E-04
(PID.TID 0000.0001) // =======================================================
(PID.TID 0000.0001) // End MONITOR dynamic field statistics
(PID.TID 0000.0001) // =======================================================
 cg2d: Sum(rhs),rhsMax =   1.11138493083749E-12  1.37915638989416E-02
 cg2d: Sum(rhs),rhsMax =   2.95950763895547E-13  8.05674108674482E+00
(PID.TID 0000.0001) // =======================================================
(PID.TID 0000.0001) // Begin MONITOR dynamic field statistics
(PID.TID 0000.0001) // =======================================================
(PID.TID 0000.0001) %MON g__time_tsnumber             =                    52
(PID.TID 0000.0001) %MON g__time_secondsf             =   2.2464000000000E+06
(PID.TID 0000.0001) %MON g__dynstat_g_eta_max         =   4.1512838162028E-03
(PID.TID 0000.0001) %MON g__dynstat_g_eta_min         =  -4.1841132998459E-05
(PID.TID 0000.0001) %MON g__dynstat_g_eta_mean        =  -1.0312946015186E-18
(PID.TID 0000.0001) %MON g__dynstat_g_eta_sd          =   5.2569170185672E-05
(PID.TID 0000.0001) %MON g__dynstat_g_eta_del2        =   1.8768389957020E-06
(PID.TID 0000.0001) %MON g__dynstat_g_uvel_max        =   2.9665484175896E-04
(PID.TID 0000.0001) %MON g__dynstat_g_uvel_min        =  -1.0044442698081E-04
(PID.TID 0000.0001) %MON g__dynstat_g_uvel_mean       =   4.4111657845693E-08
(PID.TID 0000.0001) %MON g__dynstat_g_uvel_sd         =   6.7660301623979E-07
(PID.TID 0000.0001) %MON g__dynstat_g_uvel_del2       =   5.3135223767066E-08
(PID.TID 0000.0001) %MON g__dynstat_g_vvel_max        =   4.4532321679292E-04
(PID.TID 0000.0001) %MON g__dynstat_g_vvel_min        =  -1.1294539833183E-04
(PID.TID 0000.0001) %MON g__dynstat_g_vvel_mean       =   7.1509789167598E-09
(PID.TID 0000.0001) %MON g__dynstat_g_vvel_sd         =   1.1399765058239E-06
(PID.TID 0000.0001) %MON g__dynstat_g_vvel_del2       =   5.8685165805590E-08
(PID.TID 0000.0001) %MON g__dynstat_g_wvel_max        =   1.4832401289085E-07
(PID.TID 0000.0001) %MON g__dynstat_g_wvel_min        =  -6.1336856917943E-08
(PID.TID 0000.0001) %MON g__dynstat_g_wvel_mean       =  -1.7904596441667E-27
(PID.TID 0000.0001) %MON g__dynstat_g_wvel_sd         =   6.4110095358813E-10
(PID.TID 0000.0001) %MON g__dynstat_g_wvel_del2       =   1.0182076157860E-10
(PID.TID 0000.0001) %MON g__dynstat_g_theta_max       =   7.8870484193310E-01
(PID.TID 0000.0001) %MON g__dynstat_g_theta_min       =  -2.1232736163247E-04
(PID.TID 0000.0001) %MON g__dynstat_g_theta_mean      =   2.9871752037720E-06
(PID.TID 0000.0001) %MON g__dynstat_g_theta_sd        =   1.2124207547373E-03
(PID.TID 0000.0001) %MON g__dynstat_g_theta_del2      =   3.3243564953342E-05
(PID.TID 0000.0001) %MON g__dynstat_g_salt_max        =   7.2220326533814E-03
(PID.TID 0000.0001) %MON g__dynstat_g_salt_min        =  -6.0673406382962E-03
(PID.TID 0000.0001) %MON g__dynstat_g_salt_mean       =   1.4545961038217E-09
(PID.TID 0000.0001) %MON g__dynstat_g_salt_sd         =   1.3666910462609E-05
(PID.TID 0000.0001) %MON g__dynstat_g_salt_del2       =   6.9134450599386E-07
(PID.TID 0000.0001) %MON g__dynstat_g_sst_max         =   7.8870484193310E-01
(PID.TID 0000.0001) %MON g__dynstat_g_sst_min         =  -1.0563350688472E-04
(PID.TID 0000.0001) %MON g__dynstat_g_sst_mean        =   1.4476592616763E-04
(PID.TID 0000.0001) %MON g__dynstat_g_sst_sd          =   9.9689100767244E-03
(PID.TID 0000.0001) %MON g__dynstat_g_sst_del2        =   3.1827257095556E-04
(PID.TID 0000.0001) %MON g__dynstat_g_sss_max         =   7.2220326533814E-03
(PID.TID 0000.0001) %MON g__dynstat_g_sss_min         =  -6.0673406382962E-03
(PID.TID 0000.0001) %MON g__dynstat_g_sss_mean        =   4.2671855176825E-07
(PID.TID 0000.0001) %MON g__dynstat_g_sss_sd          =   1.1909518562656E-04
(PID.TID 0000.0001) %MON g__dynstat_g_sss_del2        =   7.6263122801945E-06
(PID.TID 0000.0001) %MON g__extforcing_g_qnet_max     =   0.0000000000000E+00
(PID.TID 0000.0001) %MON g__extforcing_g_qnet_min     =   0.0000000000000E+00
(PID.TID 0000.0001) %MON g__extforcing_g_qnet_mean    =   0.0000000000000E+00
(PID.TID 0000.0001) %MON g__extforcing_g_qnet_sd      =   0.0000000000000E+00
(PID.TID 0000.0001) %MON g__extforcing_g_qnet_del2    =   0.0000000000000E+00
(PID.TID 0000.0001) %MON g__extforcing_g_empmr_max    =   0.0000000000000E+00
(PID.TID 0000.0001) %MON g__extforcing_g_empmr_min    =   0.0000000000000E+00
(PID.TID 0000.0001) %MON g__extforcing_g_empmr_mean   =   0.0000000000000E+00
(PID.TID 0000.0001) %MON g__extforcing_g_empmr_sd     =   0.0000000000000E+00
(PID.TID 0000.0001) %MON g__extforcing_g_empmr_del2   =   0.0000000000000E+00
(PID.TID 0000.0001) %MON g__extforcing_g_fu_max       =   0.0000000000000E+00
(PID.TID 0000.0001) %MON g__extforcing_g_fu_min       =   0.0000000000000E+00
(PID.TID 0000.0001) %MON g__extforcing_g_fu_mean      =   0.0000000000000E+00
(PID.TID 0000.0001) %MON g__extforcing_g_fu_sd        =   0.0000000000000E+00
(PID.TID 0000.0001) %MON g__extforcing_g_fu_del2      =   0.0000000000000E+00
(PID.TID 0000.0001) %MON g__extforcing_g_fv_max       =   0.0000000000000E+00
(PID.TID 0000.0001) %MON g__extforcing_g_fv_min       =   0.0000000000000E+00
(PID.TID 0000.0001) %MON g__extforcing_g_fv_mean      =   0.0000000000000E+00
(PID.TID 0000.0001) %MON g__extforcing_g_fv_sd        =   0.0000000000000E+00
(PID.TID 0000.0001) %MON g__extforcing_g_fv_del2      =   0.0000000000000E+00
(PID.TID 0000.0001) %MON g__g_vcfl_g_uvel_max         =   1.0454910549275E-04
(PID.TID 0000.0001) %MON g__g_vcfl_g_vvel_max         =   4.3259579448568E-05
(PID.TID 0000.0001) %MON g__g_vcfl_g_wvel_max         =   9.8997759416293E-05
(PID.TID 0000.0001) %MON g__g_vcfl_g_W_hf_max         =   1.9939583439764E-04
(PID.TID 0000.0001) // =======================================================
(PID.TID 0000.0001) // End MONITOR dynamic field statistics
(PID.TID 0000.0001) // =======================================================
 cg2d: Sum(rhs),rhsMax =   1.19429574491526E-12  1.35853518532826E-02
 cg2d: Sum(rhs),rhsMax =   1.47978851394726E-13  8.18299903790893E+00
(PID.TID 0000.0001) // =======================================================
(PID.TID 0000.0001) // Begin MONITOR dynamic field statistics
(PID.TID 0000.0001) // =======================================================
(PID.TID 0000.0001) %MON g__time_tsnumber             =                    53
(PID.TID 0000.0001) %MON g__time_secondsf             =   2.2896000000000E+06
(PID.TID 0000.0001) %MON g__dynstat_g_eta_max         =   4.0874436786574E-03
(PID.TID 0000.0001) %MON g__dynstat_g_eta_min         =  -4.6850673467093E-05
(PID.TID 0000.0001) %MON g__dynstat_g_eta_mean        =  -1.0908963100285E-18
(PID.TID 0000.0001) %MON g__dynstat_g_eta_sd          =   5.1761670549683E-05
(PID.TID 0000.0001) %MON g__dynstat_g_eta_del2        =   1.8525798005210E-06
(PID.TID 0000.0001) %MON g__dynstat_g_uvel_max        =   2.5200698425686E-04
(PID.TID 0000.0001) %MON g__dynstat_g_uvel_min        =  -1.0132403417414E-04
(PID.TID 0000.0001) %MON g__dynstat_g_uvel_mean       =   4.2837777835040E-08
(PID.TID 0000.0001) %MON g__dynstat_g_uvel_sd         =   6.0684221893349E-07
(PID.TID 0000.0001) %MON g__dynstat_g_uvel_del2       =   5.1573154977370E-08
(PID.TID 0000.0001) %MON g__dynstat_g_vvel_max        =   4.5521984286710E-04
(PID.TID 0000.0001) %MON g__dynstat_g_vvel_min        =  -1.1164208815944E-04
(PID.TID 0000.0001) %MON g__dynstat_g_vvel_mean       =   1.1110969086055E-08
(PID.TID 0000.0001) %MON g__dynstat_g_vvel_sd         =   1.1465088531842E-06
(PID.TID 0000.0001) %MON g__dynstat_g_vvel_del2       =   5.8445419593296E-08
(PID.TID 0000.0001) %MON g__dynstat_g_wvel_max        =   1.3100097957413E-07
(PID.TID 0000.0001) %MON g__dynstat_g_wvel_min        =  -5.3200114621189E-08
(PID.TID 0000.0001) %MON g__dynstat_g_wvel_mean       =   1.5383358370677E-27
(PID.TID 0000.0001) %MON g__dynstat_g_wvel_sd         =   6.1303178017878E-10
(PID.TID 0000.0001) %MON g__dynstat_g_wvel_del2       =   1.0204900110757E-10
(PID.TID 0000.0001) %MON g__dynstat_g_theta_max       =   7.7798100413499E-01
(PID.TID 0000.0001) %MON g__dynstat_g_theta_min       =  -2.2281871875896E-04
(PID.TID 0000.0001) %MON g__dynstat_g_theta_mean      =   2.9602356338105E-06
(PID.TID 0000.0001) %MON g__dynstat_g_theta_sd        =   1.1969473057955E-03
(PID.TID 0000.0001) %MON g__dynstat_g_theta_del2      =   3.2828537380561E-05
(PID.TID 0000.0001) %MON g__dynstat_g_salt_max        =   7.2651521993982E-03
(PID.TID 0000.0001) %MON g__dynstat_g_salt_min        =  -6.0748019907586E-03
(PID.TID 0000.0001) %MON g__dynstat_g_salt_mean       =   1.6680489410663E-09
(PID.TID 0000.0001) %MON g__dynstat_g_salt_sd         =   1.3725770970551E-05
(PID.TID 0000.0001) %MON g__dynstat_g_salt_del2       =   6.9680313996665E-07
(PID.TID 0000.0001) %MON g__dynstat_g_sst_max         =   7.7798100413499E-01
(PID.TID 0000.0001) %MON g__dynstat_g_sst_min         =  -1.0087867636854E-04
(PID.TID 0000.0001) %MON g__dynstat_g_sst_mean        =   1.4296200501682E-04
(PID.TID 0000.0001) %MON g__dynstat_g_sst_sd          =   9.8338853239414E-03
(PID.TID 0000.0001) %MON g__dynstat_g_sst_del2        =   3.1383277359944E-04
(PID.TID 0000.0001) %MON g__dynstat_g_sss_max         =   7.2651521993982E-03
(PID.TID 0000.0001) %MON g__dynstat_g_sss_min         =  -6.0748019907586E-03
(PID.TID 0000.0001) %MON g__dynstat_g_sss_mean        =   4.3448337846008E-07
(PID.TID 0000.0001) %MON g__dynstat_g_sss_sd          =   1.1957681361274E-04
(PID.TID 0000.0001) %MON g__dynstat_g_sss_del2        =   7.6618135590375E-06
(PID.TID 0000.0001) %MON g__extforcing_g_qnet_max     =   0.0000000000000E+00
(PID.TID 0000.0001) %MON g__extforcing_g_qnet_min     =   0.0000000000000E+00
(PID.TID 0000.0001) %MON g__extforcing_g_qnet_mean    =   0.0000000000000E+00
(PID.TID 0000.0001) %MON g__extforcing_g_qnet_sd      =   0.0000000000000E+00
(PID.TID 0000.0001) %MON g__extforcing_g_qnet_del2    =   0.0000000000000E+00
(PID.TID 0000.0001) %MON g__extforcing_g_empmr_max    =   0.0000000000000E+00
(PID.TID 0000.0001) %MON g__extforcing_g_empmr_min    =   0.0000000000000E+00
(PID.TID 0000.0001) %MON g__extforcing_g_empmr_mean   =   0.0000000000000E+00
(PID.TID 0000.0001) %MON g__extforcing_g_empmr_sd     =   0.0000000000000E+00
(PID.TID 0000.0001) %MON g__extforcing_g_empmr_del2   =   0.0000000000000E+00
(PID.TID 0000.0001) %MON g__extforcing_g_fu_max       =   0.0000000000000E+00
(PID.TID 0000.0001) %MON g__extforcing_g_fu_min       =   0.0000000000000E+00
(PID.TID 0000.0001) %MON g__extforcing_g_fu_mean      =   0.0000000000000E+00
(PID.TID 0000.0001) %MON g__extforcing_g_fu_sd        =   0.0000000000000E+00
(PID.TID 0000.0001) %MON g__extforcing_g_fu_del2      =   0.0000000000000E+00
(PID.TID 0000.0001) %MON g__extforcing_g_fv_max       =   0.0000000000000E+00
(PID.TID 0000.0001) %MON g__extforcing_g_fv_min       =   0.0000000000000E+00
(PID.TID 0000.0001) %MON g__extforcing_g_fv_mean      =   0.0000000000000E+00
(PID.TID 0000.0001) %MON g__extforcing_g_fv_sd        =   0.0000000000000E+00
(PID.TID 0000.0001) %MON g__extforcing_g_fv_del2      =   0.0000000000000E+00
(PID.TID 0000.0001) %MON g__g_vcfl_g_uvel_max         =   8.8814005615958E-05
(PID.TID 0000.0001) %MON g__g_vcfl_g_vvel_max         =   4.4220957310274E-05
(PID.TID 0000.0001) %MON g__g_vcfl_g_wvel_max         =   9.1929798065414E-05
(PID.TID 0000.0001) %MON g__g_vcfl_g_W_hf_max         =   1.7340038710223E-04
(PID.TID 0000.0001) // =======================================================
(PID.TID 0000.0001) // End MONITOR dynamic field statistics
(PID.TID 0000.0001) // =======================================================
 cg2d: Sum(rhs),rhsMax =   1.28060925960296E-12  1.34026995657652E-02
 cg2d: Sum(rhs),rhsMax =   5.77475567364871E-13  9.40876964847958E+00
(PID.TID 0000.0001) // =======================================================
(PID.TID 0000.0001) // Begin MONITOR dynamic field statistics
(PID.TID 0000.0001) // =======================================================
(PID.TID 0000.0001) %MON g__time_tsnumber             =                    54
(PID.TID 0000.0001) %MON g__time_secondsf             =   2.3328000000000E+06
(PID.TID 0000.0001) %MON g__dynstat_g_eta_max         =   4.0312682949771E-03
(PID.TID 0000.0001) %MON g__dynstat_g_eta_min         =  -5.0559509449818E-05
(PID.TID 0000.0001) %MON g__dynstat_g_eta_mean        =  -1.4908231677445E-18
(PID.TID 0000.0001) %MON g__dynstat_g_eta_sd          =   5.1051138828861E-05
(PID.TID 0000.0001) %MON g__dynstat_g_eta_del2        =   1.8289508232492E-06
(PID.TID 0000.0001) %MON g__dynstat_g_uvel_max        =   2.0050714623080E-04
(PID.TID 0000.0001) %MON g__dynstat_g_uvel_min        =  -1.0128221646680E-04
(PID.TID 0000.0001) %MON g__dynstat_g_uvel_mean       =   4.1081223837724E-08
(PID.TID 0000.0001) %MON g__dynstat_g_uvel_sd         =   5.2835782124884E-07
(PID.TID 0000.0001) %MON g__dynstat_g_uvel_del2       =   4.9652246880432E-08
(PID.TID 0000.0001) %MON g__dynstat_g_vvel_max        =   4.6134762261917E-04
(PID.TID 0000.0001) %MON g__dynstat_g_vvel_min        =  -1.1000953917073E-04
(PID.TID 0000.0001) %MON g__dynstat_g_vvel_mean       =   1.4806381790620E-08
(PID.TID 0000.0001) %MON g__dynstat_g_vvel_sd         =   1.1465392343907E-06
(PID.TID 0000.0001) %MON g__dynstat_g_vvel_del2       =   5.7966760464831E-08
(PID.TID 0000.0001) %MON g__dynstat_g_wvel_max        =   1.1187758150996E-07
(PID.TID 0000.0001) %MON g__dynstat_g_wvel_min        =  -4.6812819733567E-08
(PID.TID 0000.0001) %MON g__dynstat_g_wvel_mean       =   2.9228512150413E-27
(PID.TID 0000.0001) %MON g__dynstat_g_wvel_sd         =   5.9837009472773E-10
(PID.TID 0000.0001) %MON g__dynstat_g_wvel_del2       =   1.0270566053419E-10
(PID.TID 0000.0001) %MON g__dynstat_g_theta_max       =   7.6792286530123E-01
(PID.TID 0000.0001) %MON g__dynstat_g_theta_min       =  -2.3365757224793E-04
(PID.TID 0000.0001) %MON g__dynstat_g_theta_mean      =   2.9368076123874E-06
(PID.TID 0000.0001) %MON g__dynstat_g_theta_sd        =   1.1826456532270E-03
(PID.TID 0000.0001) %MON g__dynstat_g_theta_del2      =   3.2449060991049E-05
(PID.TID 0000.0001) %MON g__dynstat_g_salt_max        =   7.3141021177681E-03
(PID.TID 0000.0001) %MON g__dynstat_g_salt_min        =  -6.0888839428534E-03
(PID.TID 0000.0001) %MON g__dynstat_g_salt_mean       =   1.9054101826443E-09
(PID.TID 0000.0001) %MON g__dynstat_g_salt_sd         =   1.3796799096348E-05
(PID.TID 0000.0001) %MON g__dynstat_g_salt_del2       =   7.0220563471975E-07
(PID.TID 0000.0001) %MON g__dynstat_g_sst_max         =   7.6792286530123E-01
(PID.TID 0000.0001) %MON g__dynstat_g_sst_min         =  -9.5809368533658E-05
(PID.TID 0000.0001) %MON g__dynstat_g_sst_mean        =   1.4128396010793E-04
(PID.TID 0000.0001) %MON g__dynstat_g_sst_sd          =   9.7073135337206E-03
(PID.TID 0000.0001) %MON g__dynstat_g_sst_del2        =   3.0965234200936E-04
(PID.TID 0000.0001) %MON g__dynstat_g_sss_max         =   7.3141021177681E-03
(PID.TID 0000.0001) %MON g__dynstat_g_sss_min         =  -6.0888839428534E-03
(PID.TID 0000.0001) %MON g__dynstat_g_sss_mean        =   4.4139535737008E-07
(PID.TID 0000.0001) %MON g__dynstat_g_sss_sd          =   1.2016961266293E-04
(PID.TID 0000.0001) %MON g__dynstat_g_sss_del2        =   7.7024301328292E-06
(PID.TID 0000.0001) %MON g__extforcing_g_qnet_max     =   0.0000000000000E+00
(PID.TID 0000.0001) %MON g__extforcing_g_qnet_min     =   0.0000000000000E+00
(PID.TID 0000.0001) %MON g__extforcing_g_qnet_mean    =   0.0000000000000E+00
(PID.TID 0000.0001) %MON g__extforcing_g_qnet_sd      =   0.0000000000000E+00
(PID.TID 0000.0001) %MON g__extforcing_g_qnet_del2    =   0.0000000000000E+00
(PID.TID 0000.0001) %MON g__extforcing_g_empmr_max    =   0.0000000000000E+00
(PID.TID 0000.0001) %MON g__extforcing_g_empmr_min    =   0.0000000000000E+00
(PID.TID 0000.0001) %MON g__extforcing_g_empmr_mean   =   0.0000000000000E+00
(PID.TID 0000.0001) %MON g__extforcing_g_empmr_sd     =   0.0000000000000E+00
(PID.TID 0000.0001) %MON g__extforcing_g_empmr_del2   =   0.0000000000000E+00
(PID.TID 0000.0001) %MON g__extforcing_g_fu_max       =   0.0000000000000E+00
(PID.TID 0000.0001) %MON g__extforcing_g_fu_min       =   0.0000000000000E+00
(PID.TID 0000.0001) %MON g__extforcing_g_fu_mean      =   0.0000000000000E+00
(PID.TID 0000.0001) %MON g__extforcing_g_fu_sd        =   0.0000000000000E+00
(PID.TID 0000.0001) %MON g__extforcing_g_fu_del2      =   0.0000000000000E+00
(PID.TID 0000.0001) %MON g__extforcing_g_fv_max       =   0.0000000000000E+00
(PID.TID 0000.0001) %MON g__extforcing_g_fv_min       =   0.0000000000000E+00
(PID.TID 0000.0001) %MON g__extforcing_g_fv_mean      =   0.0000000000000E+00
(PID.TID 0000.0001) %MON g__extforcing_g_fv_sd        =   0.0000000000000E+00
(PID.TID 0000.0001) %MON g__extforcing_g_fv_del2      =   0.0000000000000E+00
(PID.TID 0000.0001) %MON g__g_vcfl_g_uvel_max         =   7.0664084425656E-05
(PID.TID 0000.0001) %MON g__g_vcfl_g_vvel_max         =   4.4816221974302E-05
(PID.TID 0000.0001) %MON g__g_vcfl_g_wvel_max         =   8.0892552499604E-05
(PID.TID 0000.0001) %MON g__g_vcfl_g_W_hf_max         =   1.4599789820407E-04
(PID.TID 0000.0001) // =======================================================
(PID.TID 0000.0001) // End MONITOR dynamic field statistics
(PID.TID 0000.0001) // =======================================================
 cg2d: Sum(rhs),rhsMax =   1.77029366030240E-12  1.32508828796577E-02
 cg2d: Sum(rhs),rhsMax =   1.07269748639283E-12  1.05293280195721E+01
(PID.TID 0000.0001) // =======================================================
(PID.TID 0000.0001) // Begin MONITOR dynamic field statistics
(PID.TID 0000.0001) // =======================================================
(PID.TID 0000.0001) %MON g__time_tsnumber             =                    55
(PID.TID 0000.0001) %MON g__time_secondsf             =   2.3760000000000E+06
(PID.TID 0000.0001) %MON g__dynstat_g_eta_max         =   3.9848833335715E-03
(PID.TID 0000.0001) %MON g__dynstat_g_eta_min         =  -5.3018490910516E-05
(PID.TID 0000.0001) %MON g__dynstat_g_eta_mean        =  -1.7891623374151E-18
(PID.TID 0000.0001) %MON g__dynstat_g_eta_sd          =   5.0463342338922E-05
(PID.TID 0000.0001) %MON g__dynstat_g_eta_del2        =   1.8072079137162E-06
(PID.TID 0000.0001) %MON g__dynstat_g_uvel_max        =   1.4440125383255E-04
(PID.TID 0000.0001) %MON g__dynstat_g_uvel_min        =  -1.0042464273210E-04
(PID.TID 0000.0001) %MON g__dynstat_g_uvel_mean       =   3.8910741284003E-08
(PID.TID 0000.0001) %MON g__dynstat_g_uvel_sd         =   4.4874851507568E-07
(PID.TID 0000.0001) %MON g__dynstat_g_uvel_del2       =   4.7498543413314E-08
(PID.TID 0000.0001) %MON g__dynstat_g_vvel_max        =   4.6376959274667E-04
(PID.TID 0000.0001) %MON g__dynstat_g_vvel_min        =  -1.0806431898487E-04
(PID.TID 0000.0001) %MON g__dynstat_g_vvel_mean       =   1.8120410383281E-08
(PID.TID 0000.0001) %MON g__dynstat_g_vvel_sd         =   1.1402438502576E-06
(PID.TID 0000.0001) %MON g__dynstat_g_vvel_del2       =   5.7335188636661E-08
(PID.TID 0000.0001) %MON g__dynstat_g_wvel_max        =   9.1670586862068E-08
(PID.TID 0000.0001) %MON g__dynstat_g_wvel_min        =  -4.0360465751878E-08
(PID.TID 0000.0001) %MON g__dynstat_g_wvel_mean       =  -4.2432929298647E-27
(PID.TID 0000.0001) %MON g__dynstat_g_wvel_sd         =   5.9776792226502E-10
(PID.TID 0000.0001) %MON g__dynstat_g_wvel_del2       =   1.0315971079341E-10
(PID.TID 0000.0001) %MON g__dynstat_g_theta_max       =   7.5871894881093E-01
(PID.TID 0000.0001) %MON g__dynstat_g_theta_min       =  -2.4463909698841E-04
(PID.TID 0000.0001) %MON g__dynstat_g_theta_mean      =   2.9181481253807E-06
(PID.TID 0000.0001) %MON g__dynstat_g_theta_sd        =   1.1698744771866E-03
(PID.TID 0000.0001) %MON g__dynstat_g_theta_del2      =   3.2116089971328E-05
(PID.TID 0000.0001) %MON g__dynstat_g_salt_max        =   7.3706685402239E-03
(PID.TID 0000.0001) %MON g__dynstat_g_salt_min        =  -6.1126599543868E-03
(PID.TID 0000.0001) %MON g__dynstat_g_salt_mean       =   2.1683185872383E-09
(PID.TID 0000.0001) %MON g__dynstat_g_salt_sd         =   1.3884483422618E-05
(PID.TID 0000.0001) %MON g__dynstat_g_salt_del2       =   7.0761668491175E-07
(PID.TID 0000.0001) %MON g__dynstat_g_sst_max         =   7.5871894881093E-01
(PID.TID 0000.0001) %MON g__dynstat_g_sst_min         =  -9.0599939880498E-05
(PID.TID 0000.0001) %MON g__dynstat_g_sst_mean        =   1.3976784416109E-04
(PID.TID 0000.0001) %MON g__dynstat_g_sst_sd          =   9.5916115007357E-03
(PID.TID 0000.0001) %MON g__dynstat_g_sst_del2        =   3.0579979761448E-04
(PID.TID 0000.0001) %MON g__dynstat_g_sss_max         =   7.3706685402239E-03
(PID.TID 0000.0001) %MON g__dynstat_g_sss_min         =  -6.1126599543868E-03
(PID.TID 0000.0001) %MON g__dynstat_g_sss_mean        =   4.4754036088252E-07
(PID.TID 0000.0001) %MON g__dynstat_g_sss_sd          =   1.2091573790238E-04
(PID.TID 0000.0001) %MON g__dynstat_g_sss_del2        =   7.7501368134559E-06
(PID.TID 0000.0001) %MON g__extforcing_g_qnet_max     =   0.0000000000000E+00
(PID.TID 0000.0001) %MON g__extforcing_g_qnet_min     =   0.0000000000000E+00
(PID.TID 0000.0001) %MON g__extforcing_g_qnet_mean    =   0.0000000000000E+00
(PID.TID 0000.0001) %MON g__extforcing_g_qnet_sd      =   0.0000000000000E+00
(PID.TID 0000.0001) %MON g__extforcing_g_qnet_del2    =   0.0000000000000E+00
(PID.TID 0000.0001) %MON g__extforcing_g_empmr_max    =   0.0000000000000E+00
(PID.TID 0000.0001) %MON g__extforcing_g_empmr_min    =   0.0000000000000E+00
(PID.TID 0000.0001) %MON g__extforcing_g_empmr_mean   =   0.0000000000000E+00
(PID.TID 0000.0001) %MON g__extforcing_g_empmr_sd     =   0.0000000000000E+00
(PID.TID 0000.0001) %MON g__extforcing_g_empmr_del2   =   0.0000000000000E+00
(PID.TID 0000.0001) %MON g__extforcing_g_fu_max       =   0.0000000000000E+00
(PID.TID 0000.0001) %MON g__extforcing_g_fu_min       =   0.0000000000000E+00
(PID.TID 0000.0001) %MON g__extforcing_g_fu_mean      =   0.0000000000000E+00
(PID.TID 0000.0001) %MON g__extforcing_g_fu_sd        =   0.0000000000000E+00
(PID.TID 0000.0001) %MON g__extforcing_g_fu_del2      =   0.0000000000000E+00
(PID.TID 0000.0001) %MON g__extforcing_g_fv_max       =   0.0000000000000E+00
(PID.TID 0000.0001) %MON g__extforcing_g_fv_min       =   0.0000000000000E+00
(PID.TID 0000.0001) %MON g__extforcing_g_fv_mean      =   0.0000000000000E+00
(PID.TID 0000.0001) %MON g__extforcing_g_fv_sd        =   0.0000000000000E+00
(PID.TID 0000.0001) %MON g__extforcing_g_fv_del2      =   0.0000000000000E+00
(PID.TID 0000.0001) %MON g__g_vcfl_g_uvel_max         =   5.0890866404573E-05
(PID.TID 0000.0001) %MON g__g_vcfl_g_vvel_max         =   4.5051496950323E-05
(PID.TID 0000.0001) %MON g__g_vcfl_g_wvel_max         =   6.6794344424079E-05
(PID.TID 0000.0001) %MON g__g_vcfl_g_W_hf_max         =   1.1799827059080E-04
(PID.TID 0000.0001) // =======================================================
(PID.TID 0000.0001) // End MONITOR dynamic field statistics
(PID.TID 0000.0001) // =======================================================
 cg2d: Sum(rhs),rhsMax =   2.14439939555319E-12  1.31348157228098E-02
 cg2d: Sum(rhs),rhsMax =   1.29979360607990E-12  1.15144713398792E+01
(PID.TID 0000.0001) // =======================================================
(PID.TID 0000.0001) // Begin MONITOR dynamic field statistics
(PID.TID 0000.0001) // =======================================================
(PID.TID 0000.0001) %MON g__time_tsnumber             =                    56
(PID.TID 0000.0001) %MON g__time_secondsf             =   2.4192000000000E+06
(PID.TID 0000.0001) %MON g__dynstat_g_eta_max         =   3.9496970060849E-03
(PID.TID 0000.0001) %MON g__dynstat_g_eta_min         =  -5.4352578469047E-05
(PID.TID 0000.0001) %MON g__dynstat_g_eta_mean        =  -2.0977615157085E-18
(PID.TID 0000.0001) %MON g__dynstat_g_eta_sd          =   5.0015707229530E-05
(PID.TID 0000.0001) %MON g__dynstat_g_eta_del2        =   1.7880028510720E-06
(PID.TID 0000.0001) %MON g__dynstat_g_uvel_max        =   1.0695223567434E-04
(PID.TID 0000.0001) %MON g__dynstat_g_uvel_min        =  -9.8876790668848E-05
(PID.TID 0000.0001) %MON g__dynstat_g_uvel_mean       =   3.6419385516379E-08
(PID.TID 0000.0001) %MON g__dynstat_g_uvel_sd         =   3.7847250949116E-07
(PID.TID 0000.0001) %MON g__dynstat_g_uvel_del2       =   4.5487112912307E-08
(PID.TID 0000.0001) %MON g__dynstat_g_vvel_max        =   4.6268070328270E-04
(PID.TID 0000.0001) %MON g__dynstat_g_vvel_min        =  -1.0584733944383E-04
(PID.TID 0000.0001) %MON g__dynstat_g_vvel_mean       =   2.0948111245249E-08
(PID.TID 0000.0001) %MON g__dynstat_g_vvel_sd         =   1.1280171875948E-06
(PID.TID 0000.0001) %MON g__dynstat_g_vvel_del2       =   5.6706239212451E-08
(PID.TID 0000.0001) %MON g__dynstat_g_wvel_max        =   7.4711676005783E-08
(PID.TID 0000.0001) %MON g__dynstat_g_wvel_min        =  -4.0544203067569E-08
(PID.TID 0000.0001) %MON g__dynstat_g_wvel_mean       =   4.0076441910652E-27
(PID.TID 0000.0001) %MON g__dynstat_g_wvel_sd         =   6.0841866271229E-10
(PID.TID 0000.0001) %MON g__dynstat_g_wvel_del2       =   1.0305377802313E-10
(PID.TID 0000.0001) %MON g__dynstat_g_theta_max       =   7.5048190890554E-01
(PID.TID 0000.0001) %MON g__dynstat_g_theta_min       =  -2.5555837388485E-04
(PID.TID 0000.0001) %MON g__dynstat_g_theta_mean      =   2.9050584326115E-06
(PID.TID 0000.0001) %MON g__dynstat_g_theta_sd        =   1.1588556415803E-03
(PID.TID 0000.0001) %MON g__dynstat_g_theta_del2      =   3.1836847253515E-05
(PID.TID 0000.0001) %MON g__dynstat_g_salt_max        =   7.4358523725815E-03
(PID.TID 0000.0001) %MON g__dynstat_g_salt_min        =  -6.1483156208799E-03
(PID.TID 0000.0001) %MON g__dynstat_g_salt_mean       =   2.4520969374321E-09
(PID.TID 0000.0001) %MON g__dynstat_g_salt_sd         =   1.3991743482192E-05
(PID.TID 0000.0001) %MON g__dynstat_g_salt_del2       =   7.1325400619331E-07
(PID.TID 0000.0001) %MON g__dynstat_g_sst_max         =   7.5048190890554E-01
(PID.TID 0000.0001) %MON g__dynstat_g_sst_min         =  -8.5386362640231E-05
(PID.TID 0000.0001) %MON g__dynstat_g_sst_mean        =   1.3843619378016E-04
(PID.TID 0000.0001) %MON g__dynstat_g_sst_sd          =   9.4882278883984E-03
(PID.TID 0000.0001) %MON g__dynstat_g_sst_del2        =   3.0232113717309E-04
(PID.TID 0000.0001) %MON g__dynstat_g_sss_max         =   7.4358523725815E-03
(PID.TID 0000.0001) %MON g__dynstat_g_sss_min         =  -6.1483156208799E-03
(PID.TID 0000.0001) %MON g__dynstat_g_sss_mean        =   4.5304284123949E-07
(PID.TID 0000.0001) %MON g__dynstat_g_sss_sd          =   1.2184245597270E-04
(PID.TID 0000.0001) %MON g__dynstat_g_sss_del2        =   7.8068694530960E-06
(PID.TID 0000.0001) %MON g__extforcing_g_qnet_max     =   0.0000000000000E+00
(PID.TID 0000.0001) %MON g__extforcing_g_qnet_min     =   0.0000000000000E+00
(PID.TID 0000.0001) %MON g__extforcing_g_qnet_mean    =   0.0000000000000E+00
(PID.TID 0000.0001) %MON g__extforcing_g_qnet_sd      =   0.0000000000000E+00
(PID.TID 0000.0001) %MON g__extforcing_g_qnet_del2    =   0.0000000000000E+00
(PID.TID 0000.0001) %MON g__extforcing_g_empmr_max    =   0.0000000000000E+00
(PID.TID 0000.0001) %MON g__extforcing_g_empmr_min    =   0.0000000000000E+00
(PID.TID 0000.0001) %MON g__extforcing_g_empmr_mean   =   0.0000000000000E+00
(PID.TID 0000.0001) %MON g__extforcing_g_empmr_sd     =   0.0000000000000E+00
(PID.TID 0000.0001) %MON g__extforcing_g_empmr_del2   =   0.0000000000000E+00
(PID.TID 0000.0001) %MON g__extforcing_g_fu_max       =   0.0000000000000E+00
(PID.TID 0000.0001) %MON g__extforcing_g_fu_min       =   0.0000000000000E+00
(PID.TID 0000.0001) %MON g__extforcing_g_fu_mean      =   0.0000000000000E+00
(PID.TID 0000.0001) %MON g__extforcing_g_fu_sd        =   0.0000000000000E+00
(PID.TID 0000.0001) %MON g__extforcing_g_fu_del2      =   0.0000000000000E+00
(PID.TID 0000.0001) %MON g__extforcing_g_fv_max       =   0.0000000000000E+00
(PID.TID 0000.0001) %MON g__extforcing_g_fv_min       =   0.0000000000000E+00
(PID.TID 0000.0001) %MON g__extforcing_g_fv_mean      =   0.0000000000000E+00
(PID.TID 0000.0001) %MON g__extforcing_g_fv_sd        =   0.0000000000000E+00
(PID.TID 0000.0001) %MON g__extforcing_g_fv_del2      =   0.0000000000000E+00
(PID.TID 0000.0001) %MON g__g_vcfl_g_uvel_max         =   3.7692830172271E-05
(PID.TID 0000.0001) %MON g__g_vcfl_g_vvel_max         =   4.4945720070743E-05
(PID.TID 0000.0001) %MON g__g_vcfl_g_wvel_max         =   5.0668311580576E-05
(PID.TID 0000.0001) %MON g__g_vcfl_g_W_hf_max         =   1.0996321219791E-04
(PID.TID 0000.0001) // =======================================================
(PID.TID 0000.0001) // End MONITOR dynamic field statistics
(PID.TID 0000.0001) // =======================================================
 cg2d: Sum(rhs),rhsMax =   2.52744892239824E-12  1.30568319954361E-02
 cg2d: Sum(rhs),rhsMax =   1.36504696435225E-12  1.23395344882039E+01
(PID.TID 0000.0001) // =======================================================
(PID.TID 0000.0001) // Begin MONITOR dynamic field statistics
(PID.TID 0000.0001) // =======================================================
(PID.TID 0000.0001) %MON g__time_tsnumber             =                    57
(PID.TID 0000.0001) %MON g__time_secondsf             =   2.4624000000000E+06
(PID.TID 0000.0001) %MON g__dynstat_g_eta_max         =   3.9263514459751E-03
(PID.TID 0000.0001) %MON g__dynstat_g_eta_min         =  -5.4724254382343E-05
(PID.TID 0000.0001) %MON g__dynstat_g_eta_mean        =  -2.3773275869562E-18
(PID.TID 0000.0001) %MON g__dynstat_g_eta_sd          =   4.9716656850610E-05
(PID.TID 0000.0001) %MON g__dynstat_g_eta_del2        =   1.7749430412352E-06
(PID.TID 0000.0001) %MON g__dynstat_g_uvel_max        =   6.7581643577878E-05
(PID.TID 0000.0001) %MON g__dynstat_g_uvel_min        =  -9.6774662077639E-05
(PID.TID 0000.0001) %MON g__dynstat_g_uvel_mean       =   3.3720451557651E-08
(PID.TID 0000.0001) %MON g__dynstat_g_uvel_sd         =   3.3121800098763E-07
(PID.TID 0000.0001) %MON g__dynstat_g_uvel_del2       =   4.4245547346076E-08
(PID.TID 0000.0001) %MON g__dynstat_g_vvel_max        =   4.5839584703934E-04
(PID.TID 0000.0001) %MON g__dynstat_g_vvel_min        =  -1.0341598830593E-04
(PID.TID 0000.0001) %MON g__dynstat_g_vvel_mean       =   2.3203211624827E-08
(PID.TID 0000.0001) %MON g__dynstat_g_vvel_sd         =   1.1104490747130E-06
(PID.TID 0000.0001) %MON g__dynstat_g_vvel_del2       =   5.5924063186091E-08
(PID.TID 0000.0001) %MON g__dynstat_g_wvel_max        =   8.6365790799540E-08
(PID.TID 0000.0001) %MON g__dynstat_g_wvel_min        =  -4.0261999715676E-08
(PID.TID 0000.0001) %MON g__dynstat_g_wvel_mean       =  -6.0600711017440E-28
(PID.TID 0000.0001) %MON g__dynstat_g_wvel_sd         =   6.2562114228593E-10
(PID.TID 0000.0001) %MON g__dynstat_g_wvel_del2       =   1.0245580775710E-10
(PID.TID 0000.0001) %MON g__dynstat_g_theta_max       =   7.4324220191111E-01
(PID.TID 0000.0001) %MON g__dynstat_g_theta_min       =  -2.6622273763564E-04
(PID.TID 0000.0001) %MON g__dynstat_g_theta_mean      =   2.8978410035883E-06
(PID.TID 0000.0001) %MON g__dynstat_g_theta_sd        =   1.1496616973327E-03
(PID.TID 0000.0001) %MON g__dynstat_g_theta_del2      =   3.1613305798813E-05
(PID.TID 0000.0001) %MON g__dynstat_g_salt_max        =   7.5097832806075E-03
(PID.TID 0000.0001) %MON g__dynstat_g_salt_min        =  -6.1969833334440E-03
(PID.TID 0000.0001) %MON g__dynstat_g_salt_mean       =   2.7456305884606E-09
(PID.TID 0000.0001) %MON g__dynstat_g_salt_sd         =   1.4119735226624E-05
(PID.TID 0000.0001) %MON g__dynstat_g_salt_del2       =   7.1916539554116E-07
(PID.TID 0000.0001) %MON g__dynstat_g_sst_max         =   7.4324220191111E-01
(PID.TID 0000.0001) %MON g__dynstat_g_sst_min         =  -8.0274727391606E-05
(PID.TID 0000.0001) %MON g__dynstat_g_sst_mean        =   1.3729637586012E-04
(PID.TID 0000.0001) %MON g__dynstat_g_sst_sd          =   9.3975625884035E-03
(PID.TID 0000.0001) %MON g__dynstat_g_sst_del2        =   2.9922450560699E-04
(PID.TID 0000.0001) %MON g__dynstat_g_sss_max         =   7.5097832806075E-03
(PID.TID 0000.0001) %MON g__dynstat_g_sss_min         =  -6.1969833334440E-03
(PID.TID 0000.0001) %MON g__dynstat_g_sss_mean        =   4.5815314992581E-07
(PID.TID 0000.0001) %MON g__dynstat_g_sss_sd          =   1.2296004662575E-04
(PID.TID 0000.0001) %MON g__dynstat_g_sss_del2        =   7.8731923820913E-06
(PID.TID 0000.0001) %MON g__extforcing_g_qnet_max     =   0.0000000000000E+00
(PID.TID 0000.0001) %MON g__extforcing_g_qnet_min     =   0.0000000000000E+00
(PID.TID 0000.0001) %MON g__extforcing_g_qnet_mean    =   0.0000000000000E+00
(PID.TID 0000.0001) %MON g__extforcing_g_qnet_sd      =   0.0000000000000E+00
(PID.TID 0000.0001) %MON g__extforcing_g_qnet_del2    =   0.0000000000000E+00
(PID.TID 0000.0001) %MON g__extforcing_g_empmr_max    =   0.0000000000000E+00
(PID.TID 0000.0001) %MON g__extforcing_g_empmr_min    =   0.0000000000000E+00
(PID.TID 0000.0001) %MON g__extforcing_g_empmr_mean   =   0.0000000000000E+00
(PID.TID 0000.0001) %MON g__extforcing_g_empmr_sd     =   0.0000000000000E+00
(PID.TID 0000.0001) %MON g__extforcing_g_empmr_del2   =   0.0000000000000E+00
(PID.TID 0000.0001) %MON g__extforcing_g_fu_max       =   0.0000000000000E+00
(PID.TID 0000.0001) %MON g__extforcing_g_fu_min       =   0.0000000000000E+00
(PID.TID 0000.0001) %MON g__extforcing_g_fu_mean      =   0.0000000000000E+00
(PID.TID 0000.0001) %MON g__extforcing_g_fu_sd        =   0.0000000000000E+00
(PID.TID 0000.0001) %MON g__extforcing_g_fu_del2      =   0.0000000000000E+00
(PID.TID 0000.0001) %MON g__extforcing_g_fv_max       =   0.0000000000000E+00
(PID.TID 0000.0001) %MON g__extforcing_g_fv_min       =   0.0000000000000E+00
(PID.TID 0000.0001) %MON g__extforcing_g_fv_mean      =   0.0000000000000E+00
(PID.TID 0000.0001) %MON g__extforcing_g_fv_sd        =   0.0000000000000E+00
(PID.TID 0000.0001) %MON g__extforcing_g_fv_del2      =   0.0000000000000E+00
(PID.TID 0000.0001) %MON g__g_vcfl_g_uvel_max         =   2.7486341272015E-05
(PID.TID 0000.0001) %MON g__g_vcfl_g_vvel_max         =   4.4529480647116E-05
(PID.TID 0000.0001) %MON g__g_vcfl_g_wvel_max         =   5.2562837401309E-05
(PID.TID 0000.0001) %MON g__g_vcfl_g_W_hf_max         =   1.2615080976314E-04
(PID.TID 0000.0001) // =======================================================
(PID.TID 0000.0001) // End MONITOR dynamic field statistics
(PID.TID 0000.0001) // =======================================================
 cg2d: Sum(rhs),rhsMax =   2.87448225947136E-12  1.30166343592773E-02
 cg2d: Sum(rhs),rhsMax =   1.98138727647290E-12  1.29859656251116E+01
(PID.TID 0000.0001) // =======================================================
(PID.TID 0000.0001) // Begin MONITOR dynamic field statistics
(PID.TID 0000.0001) // =======================================================
(PID.TID 0000.0001) %MON g__time_tsnumber             =                    58
(PID.TID 0000.0001) %MON g__time_secondsf             =   2.5056000000000E+06
(PID.TID 0000.0001) %MON g__dynstat_g_eta_max         =   3.9147161709316E-03
(PID.TID 0000.0001) %MON g__dynstat_g_eta_min         =  -5.4301868602173E-05
(PID.TID 0000.0001) %MON g__dynstat_g_eta_mean        =  -2.6077350975595E-18
(PID.TID 0000.0001) %MON g__dynstat_g_eta_sd          =   4.9565311253711E-05
(PID.TID 0000.0001) %MON g__dynstat_g_eta_del2        =   1.7692301238039E-06
(PID.TID 0000.0001) %MON g__dynstat_g_uvel_max        =   2.7856032874588E-05
(PID.TID 0000.0001) %MON g__dynstat_g_uvel_min        =  -9.4256771400853E-05
(PID.TID 0000.0001) %MON g__dynstat_g_uvel_mean       =   3.0941400154286E-08
(PID.TID 0000.0001) %MON g__dynstat_g_uvel_sd         =   3.1941010074782E-07
(PID.TID 0000.0001) %MON g__dynstat_g_uvel_del2       =   4.3050936613845E-08
(PID.TID 0000.0001) %MON g__dynstat_g_vvel_max        =   4.5133344450830E-04
(PID.TID 0000.0001) %MON g__dynstat_g_vvel_min        =  -1.0083567697993E-04
(PID.TID 0000.0001) %MON g__dynstat_g_vvel_mean       =   2.4824422197120E-08
(PID.TID 0000.0001) %MON g__dynstat_g_vvel_sd         =   1.0883023583679E-06
(PID.TID 0000.0001) %MON g__dynstat_g_vvel_del2       =   5.5105224285037E-08
(PID.TID 0000.0001) %MON g__dynstat_g_wvel_max        =   9.5809924338481E-08
(PID.TID 0000.0001) %MON g__dynstat_g_wvel_min        =  -3.9562701821392E-08
(PID.TID 0000.0001) %MON g__dynstat_g_wvel_mean       =   5.0223517360685E-29
(PID.TID 0000.0001) %MON g__dynstat_g_wvel_sd         =   6.4449821668753E-10
(PID.TID 0000.0001) %MON g__dynstat_g_wvel_del2       =   1.0191067758027E-10
(PID.TID 0000.0001) %MON g__dynstat_g_theta_max       =   7.3694941034671E-01
(PID.TID 0000.0001) %MON g__dynstat_g_theta_min       =  -2.7646323313336E-04
(PID.TID 0000.0001) %MON g__dynstat_g_theta_mean      =   2.8963014103312E-06
(PID.TID 0000.0001) %MON g__dynstat_g_theta_sd        =   1.1422166472389E-03
(PID.TID 0000.0001) %MON g__dynstat_g_theta_del2      =   3.1442907374355E-05
(PID.TID 0000.0001) %MON g__dynstat_g_salt_max        =   7.5917095311462E-03
(PID.TID 0000.0001) %MON g__dynstat_g_salt_min        =  -6.2586683911615E-03
(PID.TID 0000.0001) %MON g__dynstat_g_salt_mean       =   3.0329220808632E-09
(PID.TID 0000.0001) %MON g__dynstat_g_salt_sd         =   1.4267782780814E-05
(PID.TID 0000.0001) %MON g__dynstat_g_salt_del2       =   7.2527986120386E-07
(PID.TID 0000.0001) %MON g__dynstat_g_sst_max         =   7.3694941034671E-01
(PID.TID 0000.0001) %MON g__dynstat_g_sst_min         =  -7.5352184861324E-05
(PID.TID 0000.0001) %MON g__dynstat_g_sst_mean        =   1.3634062338182E-04
(PID.TID 0000.0001) %MON g__dynstat_g_sst_sd          =   9.3189834336834E-03
(PID.TID 0000.0001) %MON g__dynstat_g_sst_del2        =   2.9648859319564E-04
(PID.TID 0000.0001) %MON g__dynstat_g_sss_max         =   7.5917095311462E-03
(PID.TID 0000.0001) %MON g__dynstat_g_sss_min         =  -6.2586683911615E-03
(PID.TID 0000.0001) %MON g__dynstat_g_sss_mean        =   4.6299028917907E-07
(PID.TID 0000.0001) %MON g__dynstat_g_sss_sd          =   1.2426117111739E-04
(PID.TID 0000.0001) %MON g__dynstat_g_sss_del2        =   7.9495029145375E-06
(PID.TID 0000.0001) %MON g__extforcing_g_qnet_max     =   0.0000000000000E+00
(PID.TID 0000.0001) %MON g__extforcing_g_qnet_min     =   0.0000000000000E+00
(PID.TID 0000.0001) %MON g__extforcing_g_qnet_mean    =   0.0000000000000E+00
(PID.TID 0000.0001) %MON g__extforcing_g_qnet_sd      =   0.0000000000000E+00
(PID.TID 0000.0001) %MON g__extforcing_g_qnet_del2    =   0.0000000000000E+00
(PID.TID 0000.0001) %MON g__extforcing_g_empmr_max    =   0.0000000000000E+00
(PID.TID 0000.0001) %MON g__extforcing_g_empmr_min    =   0.0000000000000E+00
(PID.TID 0000.0001) %MON g__extforcing_g_empmr_mean   =   0.0000000000000E+00
(PID.TID 0000.0001) %MON g__extforcing_g_empmr_sd     =   0.0000000000000E+00
(PID.TID 0000.0001) %MON g__extforcing_g_empmr_del2   =   0.0000000000000E+00
(PID.TID 0000.0001) %MON g__extforcing_g_fu_max       =   0.0000000000000E+00
(PID.TID 0000.0001) %MON g__extforcing_g_fu_min       =   0.0000000000000E+00
(PID.TID 0000.0001) %MON g__extforcing_g_fu_mean      =   0.0000000000000E+00
(PID.TID 0000.0001) %MON g__extforcing_g_fu_sd        =   0.0000000000000E+00
(PID.TID 0000.0001) %MON g__extforcing_g_fu_del2      =   0.0000000000000E+00
(PID.TID 0000.0001) %MON g__extforcing_g_fv_max       =   0.0000000000000E+00
(PID.TID 0000.0001) %MON g__extforcing_g_fv_min       =   0.0000000000000E+00
(PID.TID 0000.0001) %MON g__extforcing_g_fv_mean      =   0.0000000000000E+00
(PID.TID 0000.0001) %MON g__extforcing_g_fv_sd        =   0.0000000000000E+00
(PID.TID 0000.0001) %MON g__extforcing_g_fv_del2      =   0.0000000000000E+00
(PID.TID 0000.0001) %MON g__g_vcfl_g_uvel_max         =   2.6771199509265E-05
(PID.TID 0000.0001) %MON g__g_vcfl_g_vvel_max         =   4.3843424874885E-05
(PID.TID 0000.0001) %MON g__g_vcfl_g_wvel_max         =   5.8096315990142E-05
(PID.TID 0000.0001) %MON g__g_vcfl_g_W_hf_max         =   1.3943115837634E-04
(PID.TID 0000.0001) // =======================================================
(PID.TID 0000.0001) // End MONITOR dynamic field statistics
(PID.TID 0000.0001) // =======================================================
 cg2d: Sum(rhs),rhsMax =   3.15394254852626E-12  1.30114098518751E-02
 cg2d: Sum(rhs),rhsMax =   2.21875295913776E-12  1.34416463490861E+01
(PID.TID 0000.0001) // =======================================================
(PID.TID 0000.0001) // Begin MONITOR dynamic field statistics
(PID.TID 0000.0001) // =======================================================
(PID.TID 0000.0001) %MON g__time_tsnumber             =                    59
(PID.TID 0000.0001) %MON g__time_secondsf             =   2.5488000000000E+06
(PID.TID 0000.0001) %MON g__dynstat_g_eta_max         =   3.9139241363529E-03
(PID.TID 0000.0001) %MON g__dynstat_g_eta_min         =  -5.3236796282592E-05
(PID.TID 0000.0001) %MON g__dynstat_g_eta_mean        =  -2.7817909269064E-18
(PID.TID 0000.0001) %MON g__dynstat_g_eta_sd          =   4.9551662116884E-05
(PID.TID 0000.0001) %MON g__dynstat_g_eta_del2        =   1.7711036798768E-06
(PID.TID 0000.0001) %MON g__dynstat_g_uvel_max        =   2.5753364369195E-05
(PID.TID 0000.0001) %MON g__dynstat_g_uvel_min        =  -9.1955214083500E-05
(PID.TID 0000.0001) %MON g__dynstat_g_uvel_mean       =   2.8215901766338E-08
(PID.TID 0000.0001) %MON g__dynstat_g_uvel_sd         =   3.4354124638687E-07
(PID.TID 0000.0001) %MON g__dynstat_g_uvel_del2       =   4.2739325441583E-08
(PID.TID 0000.0001) %MON g__dynstat_g_vvel_max        =   4.4199471874215E-04
(PID.TID 0000.0001) %MON g__dynstat_g_vvel_min        =  -9.8171981888982E-05
(PID.TID 0000.0001) %MON g__dynstat_g_vvel_mean       =   2.5780210578786E-08
(PID.TID 0000.0001) %MON g__dynstat_g_vvel_sd         =   1.0624888326722E-06
(PID.TID 0000.0001) %MON g__dynstat_g_vvel_del2       =   5.4261753217695E-08
(PID.TID 0000.0001) %MON g__dynstat_g_wvel_max        =   1.0284774043110E-07
(PID.TID 0000.0001) %MON g__dynstat_g_wvel_min        =  -3.8517760060438E-08
(PID.TID 0000.0001) %MON g__dynstat_g_wvel_mean       =  -5.3439922409777E-27
(PID.TID 0000.0001) %MON g__dynstat_g_wvel_sd         =   6.6102416692467E-10
(PID.TID 0000.0001) %MON g__dynstat_g_wvel_del2       =   1.0261338494412E-10
(PID.TID 0000.0001) %MON g__dynstat_g_theta_max       =   7.3148070728685E-01
(PID.TID 0000.0001) %MON g__dynstat_g_theta_min       =  -2.8614450211789E-04
(PID.TID 0000.0001) %MON g__dynstat_g_theta_mean      =   2.8997879971436E-06
(PID.TID 0000.0001) %MON g__dynstat_g_theta_sd        =   1.1363090769399E-03
(PID.TID 0000.0001) %MON g__dynstat_g_theta_del2      =   3.1318412314121E-05
(PID.TID 0000.0001) %MON g__dynstat_g_salt_max        =   7.6800652959672E-03
(PID.TID 0000.0001) %MON g__dynstat_g_salt_min        =  -6.3322695514971E-03
(PID.TID 0000.0001) %MON g__dynstat_g_salt_mean       =   3.2950057374880E-09
(PID.TID 0000.0001) %MON g__dynstat_g_salt_sd         =   1.4433437164254E-05
(PID.TID 0000.0001) %MON g__dynstat_g_salt_del2       =   7.3155859637674E-07
(PID.TID 0000.0001) %MON g__dynstat_g_sst_max         =   7.3148070728685E-01
(PID.TID 0000.0001) %MON g__dynstat_g_sst_min         =  -7.0697682934270E-05
(PID.TID 0000.0001) %MON g__dynstat_g_sst_mean        =   1.3554574515148E-04
(PID.TID 0000.0001) %MON g__dynstat_g_sst_sd          =   9.2509336326379E-03
(PID.TID 0000.0001) %MON g__dynstat_g_sst_del2        =   2.9406617892322E-04
(PID.TID 0000.0001) %MON g__dynstat_g_sss_max         =   7.6800652959672E-03
(PID.TID 0000.0001) %MON g__dynstat_g_sss_min         =  -6.3322695514971E-03
(PID.TID 0000.0001) %MON g__dynstat_g_sss_mean        =   4.6760958443193E-07
(PID.TID 0000.0001) %MON g__dynstat_g_sss_sd          =   1.2572172394741E-04
(PID.TID 0000.0001) %MON g__dynstat_g_sss_del2        =   8.0344770389090E-06
(PID.TID 0000.0001) %MON g__extforcing_g_qnet_max     =   0.0000000000000E+00
(PID.TID 0000.0001) %MON g__extforcing_g_qnet_min     =   0.0000000000000E+00
(PID.TID 0000.0001) %MON g__extforcing_g_qnet_mean    =   0.0000000000000E+00
(PID.TID 0000.0001) %MON g__extforcing_g_qnet_sd      =   0.0000000000000E+00
(PID.TID 0000.0001) %MON g__extforcing_g_qnet_del2    =   0.0000000000000E+00
(PID.TID 0000.0001) %MON g__extforcing_g_empmr_max    =   0.0000000000000E+00
(PID.TID 0000.0001) %MON g__extforcing_g_empmr_min    =   0.0000000000000E+00
(PID.TID 0000.0001) %MON g__extforcing_g_empmr_mean   =   0.0000000000000E+00
(PID.TID 0000.0001) %MON g__extforcing_g_empmr_sd     =   0.0000000000000E+00
(PID.TID 0000.0001) %MON g__extforcing_g_empmr_del2   =   0.0000000000000E+00
(PID.TID 0000.0001) %MON g__extforcing_g_fu_max       =   0.0000000000000E+00
(PID.TID 0000.0001) %MON g__extforcing_g_fu_min       =   0.0000000000000E+00
(PID.TID 0000.0001) %MON g__extforcing_g_fu_mean      =   0.0000000000000E+00
(PID.TID 0000.0001) %MON g__extforcing_g_fu_sd        =   0.0000000000000E+00
(PID.TID 0000.0001) %MON g__extforcing_g_fu_del2      =   0.0000000000000E+00
(PID.TID 0000.0001) %MON g__extforcing_g_fv_max       =   0.0000000000000E+00
(PID.TID 0000.0001) %MON g__extforcing_g_fv_min       =   0.0000000000000E+00
(PID.TID 0000.0001) %MON g__extforcing_g_fv_mean      =   0.0000000000000E+00
(PID.TID 0000.0001) %MON g__extforcing_g_fv_sd        =   0.0000000000000E+00
(PID.TID 0000.0001) %MON g__extforcing_g_fv_del2      =   0.0000000000000E+00
(PID.TID 0000.0001) %MON g__g_vcfl_g_uvel_max         =   2.8663063649245E-05
(PID.TID 0000.0001) %MON g__g_vcfl_g_vvel_max         =   4.2936242554280E-05
(PID.TID 0000.0001) %MON g__g_vcfl_g_wvel_max         =   6.2321643854522E-05
(PID.TID 0000.0001) %MON g__g_vcfl_g_W_hf_max         =   1.4957194525085E-04
(PID.TID 0000.0001) // =======================================================
(PID.TID 0000.0001) // End MONITOR dynamic field statistics
(PID.TID 0000.0001) // =======================================================
 cg2d: Sum(rhs),rhsMax =   3.35703928599457E-12  1.30360994116830E-02
 cg2d: Sum(rhs),rhsMax =   2.35764879841227E-12  1.37009641669028E+01
(PID.TID 0000.0001) // =======================================================
(PID.TID 0000.0001) // Begin MONITOR dynamic field statistics
(PID.TID 0000.0001) // =======================================================
(PID.TID 0000.0001) %MON g__time_tsnumber             =                    60
(PID.TID 0000.0001) %MON g__time_secondsf             =   2.5920000000000E+06
(PID.TID 0000.0001) %MON g__dynstat_g_eta_max         =   3.9224480393265E-03
(PID.TID 0000.0001) %MON g__dynstat_g_eta_min         =  -5.1650713471444E-05
(PID.TID 0000.0001) %MON g__dynstat_g_eta_mean        =  -2.9066355354324E-18
(PID.TID 0000.0001) %MON g__dynstat_g_eta_sd          =   4.9657289971349E-05
(PID.TID 0000.0001) %MON g__dynstat_g_eta_del2        =   1.7768804260324E-06
(PID.TID 0000.0001) %MON g__dynstat_g_uvel_max        =   3.4072197403969E-05
(PID.TID 0000.0001) %MON g__dynstat_g_uvel_min        =  -1.2834207560824E-04
(PID.TID 0000.0001) %MON g__dynstat_g_uvel_mean       =   2.5674631287292E-08
(PID.TID 0000.0001) %MON g__dynstat_g_uvel_sd         =   3.9088880273417E-07
(PID.TID 0000.0001) %MON g__dynstat_g_uvel_del2       =   4.3054518309740E-08
(PID.TID 0000.0001) %MON g__dynstat_g_vvel_max        =   4.3093925342867E-04
(PID.TID 0000.0001) %MON g__dynstat_g_vvel_min        =  -9.5484269558307E-05
(PID.TID 0000.0001) %MON g__dynstat_g_vvel_mean       =   2.6071505321186E-08
(PID.TID 0000.0001) %MON g__dynstat_g_vvel_sd         =   1.0340410378264E-06
(PID.TID 0000.0001) %MON g__dynstat_g_vvel_del2       =   5.3461235423302E-08
(PID.TID 0000.0001) %MON g__dynstat_g_wvel_max        =   1.0742338308272E-07
(PID.TID 0000.0001) %MON g__dynstat_g_wvel_min        =  -3.7214970486660E-08
(PID.TID 0000.0001) %MON g__dynstat_g_wvel_mean       =  -3.9517333415993E-27
(PID.TID 0000.0001) %MON g__dynstat_g_wvel_sd         =   6.7233264582003E-10
(PID.TID 0000.0001) %MON g__dynstat_g_wvel_del2       =   1.0315228139720E-10
(PID.TID 0000.0001) %MON g__dynstat_g_theta_max       =   7.2665529850784E-01
(PID.TID 0000.0001) %MON g__dynstat_g_theta_min       =  -2.9517243602922E-04
(PID.TID 0000.0001) %MON g__dynstat_g_theta_mean      =   2.9072658519299E-06
(PID.TID 0000.0001) %MON g__dynstat_g_theta_sd        =   1.1316159310466E-03
(PID.TID 0000.0001) %MON g__dynstat_g_theta_del2      =   3.1229927080994E-05
(PID.TID 0000.0001) %MON g__dynstat_g_salt_max        =   7.7726094393636E-03
(PID.TID 0000.0001) %MON g__dynstat_g_salt_min        =  -6.4156902964311E-03
(PID.TID 0000.0001) %MON g__dynstat_g_salt_mean       =   3.5125180770478E-09
(PID.TID 0000.0001) %MON g__dynstat_g_salt_sd         =   1.4612662681009E-05
(PID.TID 0000.0001) %MON g__dynstat_g_salt_del2       =   7.3788340602096E-07
(PID.TID 0000.0001) %MON g__dynstat_g_sst_max         =   7.2665529850784E-01
(PID.TID 0000.0001) %MON g__dynstat_g_sst_min         =  -6.6390351232758E-05
(PID.TID 0000.0001) %MON g__dynstat_g_sst_mean        =   1.3487914311355E-04
(PID.TID 0000.0001) %MON g__dynstat_g_sst_sd          =   9.1911150582812E-03
(PID.TID 0000.0001) %MON g__dynstat_g_sst_del2        =   2.9188873897932E-04
(PID.TID 0000.0001) %MON g__dynstat_g_sss_max         =   7.7726094393636E-03
(PID.TID 0000.0001) %MON g__dynstat_g_sss_min         =  -6.4156902964311E-03
(PID.TID 0000.0001) %MON g__dynstat_g_sss_mean        =   4.7205873555537E-07
(PID.TID 0000.0001) %MON g__dynstat_g_sss_sd          =   1.2730307389823E-04
(PID.TID 0000.0001) %MON g__dynstat_g_sss_del2        =   8.1256248460634E-06
(PID.TID 0000.0001) %MON g__extforcing_g_qnet_max     =   0.0000000000000E+00
(PID.TID 0000.0001) %MON g__extforcing_g_qnet_min     =   0.0000000000000E+00
(PID.TID 0000.0001) %MON g__extforcing_g_qnet_mean    =   0.0000000000000E+00
(PID.TID 0000.0001) %MON g__extforcing_g_qnet_sd      =   0.0000000000000E+00
(PID.TID 0000.0001) %MON g__extforcing_g_qnet_del2    =   0.0000000000000E+00
(PID.TID 0000.0001) %MON g__extforcing_g_empmr_max    =   0.0000000000000E+00
(PID.TID 0000.0001) %MON g__extforcing_g_empmr_min    =   0.0000000000000E+00
(PID.TID 0000.0001) %MON g__extforcing_g_empmr_mean   =   0.0000000000000E+00
(PID.TID 0000.0001) %MON g__extforcing_g_empmr_sd     =   0.0000000000000E+00
(PID.TID 0000.0001) %MON g__extforcing_g_empmr_del2   =   0.0000000000000E+00
(PID.TID 0000.0001) %MON g__extforcing_g_fu_max       =   0.0000000000000E+00
(PID.TID 0000.0001) %MON g__extforcing_g_fu_min       =   0.0000000000000E+00
(PID.TID 0000.0001) %MON g__extforcing_g_fu_mean      =   0.0000000000000E+00
(PID.TID 0000.0001) %MON g__extforcing_g_fu_sd        =   0.0000000000000E+00
(PID.TID 0000.0001) %MON g__extforcing_g_fu_del2      =   0.0000000000000E+00
(PID.TID 0000.0001) %MON g__extforcing_g_fv_max       =   0.0000000000000E+00
(PID.TID 0000.0001) %MON g__extforcing_g_fv_min       =   0.0000000000000E+00
(PID.TID 0000.0001) %MON g__extforcing_g_fv_mean      =   0.0000000000000E+00
(PID.TID 0000.0001) %MON g__extforcing_g_fv_sd        =   0.0000000000000E+00
(PID.TID 0000.0001) %MON g__extforcing_g_fv_del2      =   0.0000000000000E+00
(PID.TID 0000.0001) %MON g__g_vcfl_g_uvel_max         =   4.5231182212854E-05
(PID.TID 0000.0001) %MON g__g_vcfl_g_vvel_max         =   4.1862292753249E-05
(PID.TID 0000.0001) %MON g__g_vcfl_g_wvel_max         =   6.5215893826477E-05
(PID.TID 0000.0001) %MON g__g_vcfl_g_W_hf_max         =   1.5651814518354E-04
(PID.TID 0000.0001) // =======================================================
(PID.TID 0000.0001) // End MONITOR dynamic field statistics
(PID.TID 0000.0001) // =======================================================
 myIter=  60
(PID.TID 0000.0001) // Model state written, timestep        60
(PID.TID 0000.0001) 
 cg2d: Sum(rhs),rhsMax =   3.49622626042832E-12  1.30838005451275E-02
 cg2d: Sum(rhs),rhsMax =   2.69472638647628E-12  1.37646539938082E+01
(PID.TID 0000.0001) // =======================================================
(PID.TID 0000.0001) // Begin MONITOR dynamic field statistics
(PID.TID 0000.0001) // =======================================================
(PID.TID 0000.0001) %MON g__time_tsnumber             =                    61
(PID.TID 0000.0001) %MON g__time_secondsf             =   2.6352000000000E+06
(PID.TID 0000.0001) %MON g__dynstat_g_eta_max         =   3.9382126747562E-03
(PID.TID 0000.0001) %MON g__dynstat_g_eta_min         =  -4.9632173837498E-05
(PID.TID 0000.0001) %MON g__dynstat_g_eta_mean        =  -3.0054283606255E-18
(PID.TID 0000.0001) %MON g__dynstat_g_eta_sd          =   4.9856626112038E-05
(PID.TID 0000.0001) %MON g__dynstat_g_eta_del2        =   1.7858191855173E-06
(PID.TID 0000.0001) %MON g__dynstat_g_uvel_max        =   4.1286356335475E-05
(PID.TID 0000.0001) %MON g__dynstat_g_uvel_min        =  -1.6870273862987E-04
(PID.TID 0000.0001) %MON g__dynstat_g_uvel_mean       =   2.3435719028995E-08
(PID.TID 0000.0001) %MON g__dynstat_g_uvel_sd         =   4.4685857253986E-07
(PID.TID 0000.0001) %MON g__dynstat_g_uvel_del2       =   4.3240480233553E-08
(PID.TID 0000.0001) %MON g__dynstat_g_vvel_max        =   4.1875784673431E-04
(PID.TID 0000.0001) %MON g__dynstat_g_vvel_min        =  -9.2821422853414E-05
(PID.TID 0000.0001) %MON g__dynstat_g_vvel_mean       =   2.5731828377679E-08
(PID.TID 0000.0001) %MON g__dynstat_g_vvel_sd         =   1.0040778843895E-06
(PID.TID 0000.0001) %MON g__dynstat_g_vvel_del2       =   5.2769340803320E-08
(PID.TID 0000.0001) %MON g__dynstat_g_wvel_max        =   1.0961088986933E-07
(PID.TID 0000.0001) %MON g__dynstat_g_wvel_min        =  -3.5751352588355E-08
(PID.TID 0000.0001) %MON g__dynstat_g_wvel_mean       =   3.5193211067621E-27
(PID.TID 0000.0001) %MON g__dynstat_g_wvel_sd         =   6.7663972048997E-10
(PID.TID 0000.0001) %MON g__dynstat_g_wvel_del2       =   1.0306440773785E-10
(PID.TID 0000.0001) %MON g__dynstat_g_theta_max       =   7.2225319518586E-01
(PID.TID 0000.0001) %MON g__dynstat_g_theta_min       =  -3.0349902016734E-04
(PID.TID 0000.0001) %MON g__dynstat_g_theta_mean      =   2.9174182313903E-06
(PID.TID 0000.0001) %MON g__dynstat_g_theta_sd        =   1.1277345749014E-03
(PID.TID 0000.0001) %MON g__dynstat_g_theta_del2      =   3.1164987782662E-05
(PID.TID 0000.0001) %MON g__dynstat_g_salt_max        =   7.8666227249105E-03
(PID.TID 0000.0001) %MON g__dynstat_g_salt_min        =  -6.5060310473620E-03
(PID.TID 0000.0001) %MON g__dynstat_g_salt_mean       =   3.6684724427752E-09
(PID.TID 0000.0001) %MON g__dynstat_g_salt_sd         =   1.4800147453789E-05
(PID.TID 0000.0001) %MON g__dynstat_g_salt_del2       =   7.4420258857141E-07
(PID.TID 0000.0001) %MON g__dynstat_g_sst_max         =   7.2225319518586E-01
(PID.TID 0000.0001) %MON g__dynstat_g_sst_min         =  -6.2514097715978E-05
(PID.TID 0000.0001) %MON g__dynstat_g_sst_mean        =   1.3429835619072E-04
(PID.TID 0000.0001) %MON g__dynstat_g_sst_sd          =   9.1367267754649E-03
(PID.TID 0000.0001) %MON g__dynstat_g_sst_del2        =   2.8987481158816E-04
(PID.TID 0000.0001) %MON g__dynstat_g_sss_max         =   7.8666227249105E-03
(PID.TID 0000.0001) %MON g__dynstat_g_sss_min         =  -6.5060310473620E-03
(PID.TID 0000.0001) %MON g__dynstat_g_sss_mean        =   4.7577315198618E-07
(PID.TID 0000.0001) %MON g__dynstat_g_sss_sd          =   1.2895549933195E-04
(PID.TID 0000.0001) %MON g__dynstat_g_sss_del2        =   8.2207399801391E-06
(PID.TID 0000.0001) %MON g__extforcing_g_qnet_max     =   0.0000000000000E+00
(PID.TID 0000.0001) %MON g__extforcing_g_qnet_min     =   0.0000000000000E+00
(PID.TID 0000.0001) %MON g__extforcing_g_qnet_mean    =   0.0000000000000E+00
(PID.TID 0000.0001) %MON g__extforcing_g_qnet_sd      =   0.0000000000000E+00
(PID.TID 0000.0001) %MON g__extforcing_g_qnet_del2    =   0.0000000000000E+00
(PID.TID 0000.0001) %MON g__extforcing_g_empmr_max    =   0.0000000000000E+00
(PID.TID 0000.0001) %MON g__extforcing_g_empmr_min    =   0.0000000000000E+00
(PID.TID 0000.0001) %MON g__extforcing_g_empmr_mean   =   0.0000000000000E+00
(PID.TID 0000.0001) %MON g__extforcing_g_empmr_sd     =   0.0000000000000E+00
(PID.TID 0000.0001) %MON g__extforcing_g_empmr_del2   =   0.0000000000000E+00
(PID.TID 0000.0001) %MON g__extforcing_g_fu_max       =   0.0000000000000E+00
(PID.TID 0000.0001) %MON g__extforcing_g_fu_min       =   0.0000000000000E+00
(PID.TID 0000.0001) %MON g__extforcing_g_fu_mean      =   0.0000000000000E+00
(PID.TID 0000.0001) %MON g__extforcing_g_fu_sd        =   0.0000000000000E+00
(PID.TID 0000.0001) %MON g__extforcing_g_fu_del2      =   0.0000000000000E+00
(PID.TID 0000.0001) %MON g__extforcing_g_fv_max       =   0.0000000000000E+00
(PID.TID 0000.0001) %MON g__extforcing_g_fv_min       =   0.0000000000000E+00
(PID.TID 0000.0001) %MON g__extforcing_g_fv_mean      =   0.0000000000000E+00
(PID.TID 0000.0001) %MON g__extforcing_g_fv_sd        =   0.0000000000000E+00
(PID.TID 0000.0001) %MON g__extforcing_g_fv_del2      =   0.0000000000000E+00
(PID.TID 0000.0001) %MON g__g_vcfl_g_uvel_max         =   5.9455360018233E-05
(PID.TID 0000.0001) %MON g__g_vcfl_g_vvel_max         =   4.0678966776030E-05
(PID.TID 0000.0001) %MON g__g_vcfl_g_wvel_max         =   6.6820906902127E-05
(PID.TID 0000.0001) %MON g__g_vcfl_g_W_hf_max         =   1.6037017656510E-04
(PID.TID 0000.0001) // =======================================================
(PID.TID 0000.0001) // End MONITOR dynamic field statistics
(PID.TID 0000.0001) // =======================================================
 cg2d: Sum(rhs),rhsMax =   3.59957568225809E-12  1.31462779918418E-02
 cg2d: Sum(rhs),rhsMax =   2.93461088762825E-12  1.36394324617495E+01
(PID.TID 0000.0001) // =======================================================
(PID.TID 0000.0001) // Begin MONITOR dynamic field statistics
(PID.TID 0000.0001) // =======================================================
(PID.TID 0000.0001) %MON g__time_tsnumber             =                    62
(PID.TID 0000.0001) %MON g__time_secondsf             =   2.6784000000000E+06
(PID.TID 0000.0001) %MON g__dynstat_g_eta_max         =   3.9587379554371E-03
(PID.TID 0000.0001) %MON g__dynstat_g_eta_min         =  -4.7240649386103E-05
(PID.TID 0000.0001) %MON g__dynstat_g_eta_mean        =  -3.0854200086548E-18
(PID.TID 0000.0001) %MON g__dynstat_g_eta_sd          =   5.0118698357658E-05
(PID.TID 0000.0001) %MON g__dynstat_g_eta_del2        =   1.7941658750289E-06
(PID.TID 0000.0001) %MON g__dynstat_g_uvel_max        =   4.7334273441902E-05
(PID.TID 0000.0001) %MON g__dynstat_g_uvel_min        =  -2.0161704265087E-04
(PID.TID 0000.0001) %MON g__dynstat_g_uvel_mean       =   2.1595523326358E-08
(PID.TID 0000.0001) %MON g__dynstat_g_uvel_sd         =   5.0134383638041E-07
(PID.TID 0000.0001) %MON g__dynstat_g_uvel_del2       =   4.4243952299674E-08
(PID.TID 0000.0001) %MON g__dynstat_g_vvel_max        =   4.0604400816509E-04
(PID.TID 0000.0001) %MON g__dynstat_g_vvel_min        =  -9.0220008110653E-05
(PID.TID 0000.0001) %MON g__dynstat_g_vvel_mean       =   2.4824953392300E-08
(PID.TID 0000.0001) %MON g__dynstat_g_vvel_sd         =   9.7376250311957E-07
(PID.TID 0000.0001) %MON g__dynstat_g_vvel_del2       =   5.2263966332409E-08
(PID.TID 0000.0001) %MON g__dynstat_g_wvel_max        =   1.0959909548377E-07
(PID.TID 0000.0001) %MON g__dynstat_g_wvel_min        =  -3.4225829236061E-08
(PID.TID 0000.0001) %MON g__dynstat_g_wvel_mean       =  -1.6498512950402E-27
(PID.TID 0000.0001) %MON g__dynstat_g_wvel_sd         =   6.7306646709412E-10
(PID.TID 0000.0001) %MON g__dynstat_g_wvel_del2       =   1.0228605791564E-10
(PID.TID 0000.0001) %MON g__dynstat_g_theta_max       =   7.1803635881510E-01
(PID.TID 0000.0001) %MON g__dynstat_g_theta_min       =  -3.1112394913337E-04
(PID.TID 0000.0001) %MON g__dynstat_g_theta_mean      =   2.9287647077003E-06
(PID.TID 0000.0001) %MON g__dynstat_g_theta_sd        =   1.1242202477779E-03
(PID.TID 0000.0001) %MON g__dynstat_g_theta_del2      =   3.1108821733587E-05
(PID.TID 0000.0001) %MON g__dynstat_g_salt_max        =   7.9591447818457E-03
(PID.TID 0000.0001) %MON g__dynstat_g_salt_min        =  -6.5998464909945E-03
(PID.TID 0000.0001) %MON g__dynstat_g_salt_mean       =   3.7505455811192E-09
(PID.TID 0000.0001) %MON g__dynstat_g_salt_sd         =   1.4989720478715E-05
(PID.TID 0000.0001) %MON g__dynstat_g_salt_del2       =   7.5151925617810E-07
(PID.TID 0000.0001) %MON g__dynstat_g_sst_max         =   7.1803635881510E-01
(PID.TID 0000.0001) %MON g__dynstat_g_sst_min         =  -5.9157857831541E-05
(PID.TID 0000.0001) %MON g__dynstat_g_sst_mean        =   1.3376017385679E-04
(PID.TID 0000.0001) %MON g__dynstat_g_sst_sd          =   9.0847338693614E-03
(PID.TID 0000.0001) %MON g__dynstat_g_sst_del2        =   2.8792913161882E-04
(PID.TID 0000.0001) %MON g__dynstat_g_sss_max         =   7.9591447818457E-03
(PID.TID 0000.0001) %MON g__dynstat_g_sss_min         =  -6.5998464909945E-03
(PID.TID 0000.0001) %MON g__dynstat_g_sss_mean        =   4.7999415502887E-07
(PID.TID 0000.0001) %MON g__dynstat_g_sss_sd          =   1.3062248422752E-04
(PID.TID 0000.0001) %MON g__dynstat_g_sss_del2        =   8.3142978106310E-06
(PID.TID 0000.0001) %MON g__extforcing_g_qnet_max     =   0.0000000000000E+00
(PID.TID 0000.0001) %MON g__extforcing_g_qnet_min     =   0.0000000000000E+00
(PID.TID 0000.0001) %MON g__extforcing_g_qnet_mean    =   0.0000000000000E+00
(PID.TID 0000.0001) %MON g__extforcing_g_qnet_sd      =   0.0000000000000E+00
(PID.TID 0000.0001) %MON g__extforcing_g_qnet_del2    =   0.0000000000000E+00
(PID.TID 0000.0001) %MON g__extforcing_g_empmr_max    =   0.0000000000000E+00
(PID.TID 0000.0001) %MON g__extforcing_g_empmr_min    =   0.0000000000000E+00
(PID.TID 0000.0001) %MON g__extforcing_g_empmr_mean   =   0.0000000000000E+00
(PID.TID 0000.0001) %MON g__extforcing_g_empmr_sd     =   0.0000000000000E+00
(PID.TID 0000.0001) %MON g__extforcing_g_empmr_del2   =   0.0000000000000E+00
(PID.TID 0000.0001) %MON g__extforcing_g_fu_max       =   0.0000000000000E+00
(PID.TID 0000.0001) %MON g__extforcing_g_fu_min       =   0.0000000000000E+00
(PID.TID 0000.0001) %MON g__extforcing_g_fu_mean      =   0.0000000000000E+00
(PID.TID 0000.0001) %MON g__extforcing_g_fu_sd        =   0.0000000000000E+00
(PID.TID 0000.0001) %MON g__extforcing_g_fu_del2      =   0.0000000000000E+00
(PID.TID 0000.0001) %MON g__extforcing_g_fv_max       =   0.0000000000000E+00
(PID.TID 0000.0001) %MON g__extforcing_g_fv_min       =   0.0000000000000E+00
(PID.TID 0000.0001) %MON g__extforcing_g_fv_mean      =   0.0000000000000E+00
(PID.TID 0000.0001) %MON g__extforcing_g_fv_sd        =   0.0000000000000E+00
(PID.TID 0000.0001) %MON g__extforcing_g_fv_del2      =   0.0000000000000E+00
(PID.TID 0000.0001) %MON g__g_vcfl_g_uvel_max         =   7.1055241627812E-05
(PID.TID 0000.0001) %MON g__g_vcfl_g_vvel_max         =   3.9443919311758E-05
(PID.TID 0000.0001) %MON g__g_vcfl_g_wvel_max         =   6.7233383412193E-05
(PID.TID 0000.0001) %MON g__g_vcfl_g_W_hf_max         =   1.6136012018926E-04
(PID.TID 0000.0001) // =======================================================
(PID.TID 0000.0001) // End MONITOR dynamic field statistics
(PID.TID 0000.0001) // =======================================================
 cg2d: Sum(rhs),rhsMax =   3.67425330235188E-12  1.32145537400800E-02
 cg2d: Sum(rhs),rhsMax =   3.13017667341597E-12  1.33374540349375E+01
(PID.TID 0000.0001) // =======================================================
(PID.TID 0000.0001) // Begin MONITOR dynamic field statistics
(PID.TID 0000.0001) // =======================================================
(PID.TID 0000.0001) %MON g__time_tsnumber             =                    63
(PID.TID 0000.0001) %MON g__time_secondsf             =   2.7216000000000E+06
(PID.TID 0000.0001) %MON g__dynstat_g_eta_max         =   3.9813060527976E-03
(PID.TID 0000.0001) %MON g__dynstat_g_eta_min         =  -4.4515539894928E-05
(PID.TID 0000.0001) %MON g__dynstat_g_eta_mean        =  -3.2116159463092E-18
(PID.TID 0000.0001) %MON g__dynstat_g_eta_sd          =   5.0409252329158E-05
(PID.TID 0000.0001) %MON g__dynstat_g_eta_del2        =   1.8014305927174E-06
(PID.TID 0000.0001) %MON g__dynstat_g_uvel_max        =   5.2209271167168E-05
(PID.TID 0000.0001) %MON g__dynstat_g_uvel_min        =  -2.2668212217515E-04
(PID.TID 0000.0001) %MON g__dynstat_g_uvel_mean       =   2.0220967064656E-08
(PID.TID 0000.0001) %MON g__dynstat_g_uvel_sd         =   5.4842836749145E-07
(PID.TID 0000.0001) %MON g__dynstat_g_uvel_del2       =   4.5420095578513E-08
(PID.TID 0000.0001) %MON g__dynstat_g_vvel_max        =   3.9336567360132E-04
(PID.TID 0000.0001) %MON g__dynstat_g_vvel_min        =  -8.7704913747937E-05
(PID.TID 0000.0001) %MON g__dynstat_g_vvel_mean       =   2.3440182582115E-08
(PID.TID 0000.0001) %MON g__dynstat_g_vvel_sd         =   9.4425140559338E-07
(PID.TID 0000.0001) %MON g__dynstat_g_vvel_del2       =   5.1815374384079E-08
(PID.TID 0000.0001) %MON g__dynstat_g_wvel_max        =   1.0767259344290E-07
(PID.TID 0000.0001) %MON g__dynstat_g_wvel_min        =  -4.1853787557179E-08
(PID.TID 0000.0001) %MON g__dynstat_g_wvel_mean       =   3.1933057310027E-27
(PID.TID 0000.0001) %MON g__dynstat_g_wvel_sd         =   6.6148686519645E-10
(PID.TID 0000.0001) %MON g__dynstat_g_wvel_del2       =   1.0133899448436E-10
(PID.TID 0000.0001) %MON g__dynstat_g_theta_max       =   7.1377013421827E-01
(PID.TID 0000.0001) %MON g__dynstat_g_theta_min       =  -3.1809280627351E-04
(PID.TID 0000.0001) %MON g__dynstat_g_theta_mean      =   2.9397923442906E-06
(PID.TID 0000.0001) %MON g__dynstat_g_theta_sd        =   1.1206255861040E-03
(PID.TID 0000.0001) %MON g__dynstat_g_theta_del2      =   3.1048905730932E-05
(PID.TID 0000.0001) %MON g__dynstat_g_salt_max        =   8.0472282474528E-03
(PID.TID 0000.0001) %MON g__dynstat_g_salt_min        =  -6.6934460695404E-03
(PID.TID 0000.0001) %MON g__dynstat_g_salt_mean       =   3.7534924080772E-09
(PID.TID 0000.0001) %MON g__dynstat_g_salt_sd         =   1.5174865428728E-05
(PID.TID 0000.0001) %MON g__dynstat_g_salt_del2       =   7.5946422202370E-07
(PID.TID 0000.0001) %MON g__dynstat_g_sst_max         =   7.1377013421827E-01
(PID.TID 0000.0001) %MON g__dynstat_g_sst_min         =  -5.6411769391380E-05
(PID.TID 0000.0001) %MON g__dynstat_g_sst_mean        =   1.3322090856716E-04
(PID.TID 0000.0001) %MON g__dynstat_g_sst_sd          =   9.0321405200817E-03
(PID.TID 0000.0001) %MON g__dynstat_g_sst_del2        =   2.8596762882396E-04
(PID.TID 0000.0001) %MON g__dynstat_g_sss_max         =   8.0472282474528E-03
(PID.TID 0000.0001) %MON g__dynstat_g_sss_min         =  -6.6934460695404E-03
(PID.TID 0000.0001) %MON g__dynstat_g_sss_mean        =   4.8510135736638E-07
(PID.TID 0000.0001) %MON g__dynstat_g_sss_sd          =   1.3224559055311E-04
(PID.TID 0000.0001) %MON g__dynstat_g_sss_del2        =   8.4035246239690E-06
(PID.TID 0000.0001) %MON g__extforcing_g_qnet_max     =   0.0000000000000E+00
(PID.TID 0000.0001) %MON g__extforcing_g_qnet_min     =   0.0000000000000E+00
(PID.TID 0000.0001) %MON g__extforcing_g_qnet_mean    =   0.0000000000000E+00
(PID.TID 0000.0001) %MON g__extforcing_g_qnet_sd      =   0.0000000000000E+00
(PID.TID 0000.0001) %MON g__extforcing_g_qnet_del2    =   0.0000000000000E+00
(PID.TID 0000.0001) %MON g__extforcing_g_empmr_max    =   0.0000000000000E+00
(PID.TID 0000.0001) %MON g__extforcing_g_empmr_min    =   0.0000000000000E+00
(PID.TID 0000.0001) %MON g__extforcing_g_empmr_mean   =   0.0000000000000E+00
(PID.TID 0000.0001) %MON g__extforcing_g_empmr_sd     =   0.0000000000000E+00
(PID.TID 0000.0001) %MON g__extforcing_g_empmr_del2   =   0.0000000000000E+00
(PID.TID 0000.0001) %MON g__extforcing_g_fu_max       =   0.0000000000000E+00
(PID.TID 0000.0001) %MON g__extforcing_g_fu_min       =   0.0000000000000E+00
(PID.TID 0000.0001) %MON g__extforcing_g_fu_mean      =   0.0000000000000E+00
(PID.TID 0000.0001) %MON g__extforcing_g_fu_sd        =   0.0000000000000E+00
(PID.TID 0000.0001) %MON g__extforcing_g_fu_del2      =   0.0000000000000E+00
(PID.TID 0000.0001) %MON g__extforcing_g_fv_max       =   0.0000000000000E+00
(PID.TID 0000.0001) %MON g__extforcing_g_fv_min       =   0.0000000000000E+00
(PID.TID 0000.0001) %MON g__extforcing_g_fv_mean      =   0.0000000000000E+00
(PID.TID 0000.0001) %MON g__extforcing_g_fv_sd        =   0.0000000000000E+00
(PID.TID 0000.0001) %MON g__extforcing_g_fv_del2      =   0.0000000000000E+00
(PID.TID 0000.0001) %MON g__g_vcfl_g_uvel_max         =   7.9888846459036E-05
(PID.TID 0000.0001) %MON g__g_vcfl_g_vvel_max         =   3.8212320776908E-05
(PID.TID 0000.0001) %MON g__g_vcfl_g_wvel_max         =   6.6594469150744E-05
(PID.TID 0000.0001) %MON g__g_vcfl_g_W_hf_max         =   1.5982672596179E-04
(PID.TID 0000.0001) // =======================================================
(PID.TID 0000.0001) // End MONITOR dynamic field statistics
(PID.TID 0000.0001) // =======================================================
 cg2d: Sum(rhs),rhsMax =   3.80645551540449E-12  1.32795430581625E-02
 cg2d: Sum(rhs),rhsMax =   3.17794401905047E-12  1.28756214604386E+01
(PID.TID 0000.0001) // =======================================================
(PID.TID 0000.0001) // Begin MONITOR dynamic field statistics
(PID.TID 0000.0001) // =======================================================
(PID.TID 0000.0001) %MON g__time_tsnumber             =                    64
(PID.TID 0000.0001) %MON g__time_secondsf             =   2.7648000000000E+06
(PID.TID 0000.0001) %MON g__dynstat_g_eta_max         =   4.0031444716917E-03
(PID.TID 0000.0001) %MON g__dynstat_g_eta_min         =  -4.1487638673826E-05
(PID.TID 0000.0001) %MON g__dynstat_g_eta_mean        =  -3.3903011549990E-18
(PID.TID 0000.0001) %MON g__dynstat_g_eta_sd          =   5.0693107279706E-05
(PID.TID 0000.0001) %MON g__dynstat_g_eta_del2        =   1.8068001146188E-06
(PID.TID 0000.0001) %MON g__dynstat_g_uvel_max        =   5.5949192049234E-05
(PID.TID 0000.0001) %MON g__dynstat_g_uvel_min        =  -2.4386842049430E-04
(PID.TID 0000.0001) %MON g__dynstat_g_uvel_mean       =   1.9343962496101E-08
(PID.TID 0000.0001) %MON g__dynstat_g_uvel_sd         =   5.8489432322919E-07
(PID.TID 0000.0001) %MON g__dynstat_g_uvel_del2       =   4.6441066794377E-08
(PID.TID 0000.0001) %MON g__dynstat_g_vvel_max        =   3.8123882575068E-04
(PID.TID 0000.0001) %MON g__dynstat_g_vvel_min        =  -8.5292146330233E-05
(PID.TID 0000.0001) %MON g__dynstat_g_vvel_mean       =   2.1685794512886E-08
(PID.TID 0000.0001) %MON g__dynstat_g_vvel_sd         =   9.1663557346905E-07
(PID.TID 0000.0001) %MON g__dynstat_g_vvel_del2       =   5.1478434079278E-08
(PID.TID 0000.0001) %MON g__dynstat_g_wvel_max        =   1.0418961703666E-07
(PID.TID 0000.0001) %MON g__dynstat_g_wvel_min        =  -5.0597963116147E-08
(PID.TID 0000.0001) %MON g__dynstat_g_wvel_mean       =   7.9692647407860E-28
(PID.TID 0000.0001) %MON g__dynstat_g_wvel_sd         =   6.4243088350107E-10
(PID.TID 0000.0001) %MON g__dynstat_g_wvel_del2       =   9.9931001243930E-11
(PID.TID 0000.0001) %MON g__dynstat_g_theta_max       =   7.0924295551989E-01
(PID.TID 0000.0001) %MON g__dynstat_g_theta_min       =  -3.2449185613176E-04
(PID.TID 0000.0001) %MON g__dynstat_g_theta_mean      =   2.9490804855780E-06
(PID.TID 0000.0001) %MON g__dynstat_g_theta_sd        =   1.1165386467280E-03
(PID.TID 0000.0001) %MON g__dynstat_g_theta_del2      =   3.0973073925210E-05
(PID.TID 0000.0001) %MON g__dynstat_g_salt_max        =   8.1281857201165E-03
(PID.TID 0000.0001) %MON g__dynstat_g_salt_min        =  -6.7832103252244E-03
(PID.TID 0000.0001) %MON g__dynstat_g_salt_mean       =   3.6793795134258E-09
(PID.TID 0000.0001) %MON g__dynstat_g_salt_sd         =   1.5349271865787E-05
(PID.TID 0000.0001) %MON g__dynstat_g_salt_del2       =   7.6708019123248E-07
(PID.TID 0000.0001) %MON g__dynstat_g_sst_max         =   7.0924295551989E-01
(PID.TID 0000.0001) %MON g__dynstat_g_sst_min         =  -5.4360258172138E-05
(PID.TID 0000.0001) %MON g__dynstat_g_sst_mean        =   1.3263051224429E-04
(PID.TID 0000.0001) %MON g__dynstat_g_sst_sd          =   8.9762417156252E-03
(PID.TID 0000.0001) %MON g__dynstat_g_sst_del2        =   2.8391684485526E-04
(PID.TID 0000.0001) %MON g__dynstat_g_sss_max         =   8.1281857201165E-03
(PID.TID 0000.0001) %MON g__dynstat_g_sss_min         =  -6.7832103252244E-03
(PID.TID 0000.0001) %MON g__dynstat_g_sss_mean        =   4.8858357787953E-07
(PID.TID 0000.0001) %MON g__dynstat_g_sss_sd          =   1.3376938180973E-04
(PID.TID 0000.0001) %MON g__dynstat_g_sss_del2        =   8.4881579594899E-06
(PID.TID 0000.0001) %MON g__extforcing_g_qnet_max     =   0.0000000000000E+00
(PID.TID 0000.0001) %MON g__extforcing_g_qnet_min     =   0.0000000000000E+00
(PID.TID 0000.0001) %MON g__extforcing_g_qnet_mean    =   0.0000000000000E+00
(PID.TID 0000.0001) %MON g__extforcing_g_qnet_sd      =   0.0000000000000E+00
(PID.TID 0000.0001) %MON g__extforcing_g_qnet_del2    =   0.0000000000000E+00
(PID.TID 0000.0001) %MON g__extforcing_g_empmr_max    =   0.0000000000000E+00
(PID.TID 0000.0001) %MON g__extforcing_g_empmr_min    =   0.0000000000000E+00
(PID.TID 0000.0001) %MON g__extforcing_g_empmr_mean   =   0.0000000000000E+00
(PID.TID 0000.0001) %MON g__extforcing_g_empmr_sd     =   0.0000000000000E+00
(PID.TID 0000.0001) %MON g__extforcing_g_empmr_del2   =   0.0000000000000E+00
(PID.TID 0000.0001) %MON g__extforcing_g_fu_max       =   0.0000000000000E+00
(PID.TID 0000.0001) %MON g__extforcing_g_fu_min       =   0.0000000000000E+00
(PID.TID 0000.0001) %MON g__extforcing_g_fu_mean      =   0.0000000000000E+00
(PID.TID 0000.0001) %MON g__extforcing_g_fu_sd        =   0.0000000000000E+00
(PID.TID 0000.0001) %MON g__extforcing_g_fu_del2      =   0.0000000000000E+00
(PID.TID 0000.0001) %MON g__extforcing_g_fv_max       =   0.0000000000000E+00
(PID.TID 0000.0001) %MON g__extforcing_g_fv_min       =   0.0000000000000E+00
(PID.TID 0000.0001) %MON g__extforcing_g_fv_mean      =   0.0000000000000E+00
(PID.TID 0000.0001) %MON g__extforcing_g_fv_sd        =   0.0000000000000E+00
(PID.TID 0000.0001) %MON g__extforcing_g_fv_del2      =   0.0000000000000E+00
(PID.TID 0000.0001) %MON g__g_vcfl_g_uvel_max         =   8.5945757936849E-05
(PID.TID 0000.0001) %MON g__g_vcfl_g_vvel_max         =   3.7034294753846E-05
(PID.TID 0000.0001) %MON g__g_vcfl_g_wvel_max         =   6.5079196040709E-05
(PID.TID 0000.0001) %MON g__g_vcfl_g_W_hf_max         =   1.5619007049770E-04
(PID.TID 0000.0001) // =======================================================
(PID.TID 0000.0001) // End MONITOR dynamic field statistics
(PID.TID 0000.0001) // =======================================================
 cg2d: Sum(rhs),rhsMax =   4.00091068611376E-12  1.33326969428048E-02
 cg2d: Sum(rhs),rhsMax =   3.29006960564371E-12  1.22747851031080E+01
(PID.TID 0000.0001) // =======================================================
(PID.TID 0000.0001) // Begin MONITOR dynamic field statistics
(PID.TID 0000.0001) // =======================================================
(PID.TID 0000.0001) %MON g__time_tsnumber             =                    65
(PID.TID 0000.0001) %MON g__time_secondsf             =   2.8080000000000E+06
(PID.TID 0000.0001) %MON g__dynstat_g_eta_max         =   4.0216146453512E-03
(PID.TID 0000.0001) %MON g__dynstat_g_eta_min         =  -3.8190791037337E-05
(PID.TID 0000.0001) %MON g__dynstat_g_eta_mean        =  -3.5506205287160E-18
(PID.TID 0000.0001) %MON g__dynstat_g_eta_sd          =   5.0936584516665E-05
(PID.TID 0000.0001) %MON g__dynstat_g_eta_del2        =   1.8089570297900E-06
(PID.TID 0000.0001) %MON g__dynstat_g_uvel_max        =   5.8623593271189E-05
(PID.TID 0000.0001) %MON g__dynstat_g_uvel_min        =  -2.5348036803386E-04
(PID.TID 0000.0001) %MON g__dynstat_g_uvel_mean       =   1.8958780655458E-08
(PID.TID 0000.0001) %MON g__dynstat_g_uvel_sd         =   6.0921297314909E-07
(PID.TID 0000.0001) %MON g__dynstat_g_uvel_del2       =   4.7008496276032E-08
(PID.TID 0000.0001) %MON g__dynstat_g_vvel_max        =   3.7010469453304E-04
(PID.TID 0000.0001) %MON g__dynstat_g_vvel_min        =  -8.2993124176345E-05
(PID.TID 0000.0001) %MON g__dynstat_g_vvel_mean       =   1.9681387938256E-08
(PID.TID 0000.0001) %MON g__dynstat_g_vvel_sd         =   8.9187628362713E-07
(PID.TID 0000.0001) %MON g__dynstat_g_vvel_del2       =   5.1257970782292E-08
(PID.TID 0000.0001) %MON g__dynstat_g_wvel_max        =   9.9558005106167E-08
(PID.TID 0000.0001) %MON g__dynstat_g_wvel_min        =  -5.7453178742043E-08
(PID.TID 0000.0001) %MON g__dynstat_g_wvel_mean       =  -1.1952147162839E-28
(PID.TID 0000.0001) %MON g__dynstat_g_wvel_sd         =   6.1701929486984E-10
(PID.TID 0000.0001) %MON g__dynstat_g_wvel_del2       =   9.8030722961563E-11
(PID.TID 0000.0001) %MON g__dynstat_g_theta_max       =   7.0428257949305E-01
(PID.TID 0000.0001) %MON g__dynstat_g_theta_min       =  -3.3043979843927E-04
(PID.TID 0000.0001) %MON g__dynstat_g_theta_mean      =   2.9554137732493E-06
(PID.TID 0000.0001) %MON g__dynstat_g_theta_sd        =   1.1116159310878E-03
(PID.TID 0000.0001) %MON g__dynstat_g_theta_del2      =   3.0868738331610E-05
(PID.TID 0000.0001) %MON g__dynstat_g_salt_max        =   8.1998063034945E-03
(PID.TID 0000.0001) %MON g__dynstat_g_salt_min        =  -6.8658926046360E-03
(PID.TID 0000.0001) %MON g__dynstat_g_salt_mean       =   3.5378356887878E-09
(PID.TID 0000.0001) %MON g__dynstat_g_salt_sd         =   1.5507370880536E-05
(PID.TID 0000.0001) %MON g__dynstat_g_salt_del2       =   7.7391021382113E-07
(PID.TID 0000.0001) %MON g__dynstat_g_sst_max         =   7.0428257949305E-01
(PID.TID 0000.0001) %MON g__dynstat_g_sst_min         =  -5.3073478267071E-05
(PID.TID 0000.0001) %MON g__dynstat_g_sst_mean        =   1.3196145085705E-04
(PID.TID 0000.0001) %MON g__dynstat_g_sst_sd          =   8.9148307177411E-03
(PID.TID 0000.0001) %MON g__dynstat_g_sst_del2        =   2.8169908096253E-04
(PID.TID 0000.0001) %MON g__dynstat_g_sss_max         =   8.1998063034945E-03
(PID.TID 0000.0001) %MON g__dynstat_g_sss_min         =  -6.8658926046360E-03
(PID.TID 0000.0001) %MON g__dynstat_g_sss_mean        =   4.9225394113646E-07
(PID.TID 0000.0001) %MON g__dynstat_g_sss_sd          =   1.3514590970522E-04
(PID.TID 0000.0001) %MON g__dynstat_g_sss_del2        =   8.5631738950624E-06
(PID.TID 0000.0001) %MON g__extforcing_g_qnet_max     =   0.0000000000000E+00
(PID.TID 0000.0001) %MON g__extforcing_g_qnet_min     =   0.0000000000000E+00
(PID.TID 0000.0001) %MON g__extforcing_g_qnet_mean    =   0.0000000000000E+00
(PID.TID 0000.0001) %MON g__extforcing_g_qnet_sd      =   0.0000000000000E+00
(PID.TID 0000.0001) %MON g__extforcing_g_qnet_del2    =   0.0000000000000E+00
(PID.TID 0000.0001) %MON g__extforcing_g_empmr_max    =   0.0000000000000E+00
(PID.TID 0000.0001) %MON g__extforcing_g_empmr_min    =   0.0000000000000E+00
(PID.TID 0000.0001) %MON g__extforcing_g_empmr_mean   =   0.0000000000000E+00
(PID.TID 0000.0001) %MON g__extforcing_g_empmr_sd     =   0.0000000000000E+00
(PID.TID 0000.0001) %MON g__extforcing_g_empmr_del2   =   0.0000000000000E+00
(PID.TID 0000.0001) %MON g__extforcing_g_fu_max       =   0.0000000000000E+00
(PID.TID 0000.0001) %MON g__extforcing_g_fu_min       =   0.0000000000000E+00
(PID.TID 0000.0001) %MON g__extforcing_g_fu_mean      =   0.0000000000000E+00
(PID.TID 0000.0001) %MON g__extforcing_g_fu_sd        =   0.0000000000000E+00
(PID.TID 0000.0001) %MON g__extforcing_g_fu_del2      =   0.0000000000000E+00
(PID.TID 0000.0001) %MON g__extforcing_g_fv_max       =   0.0000000000000E+00
(PID.TID 0000.0001) %MON g__extforcing_g_fv_min       =   0.0000000000000E+00
(PID.TID 0000.0001) %MON g__extforcing_g_fv_mean      =   0.0000000000000E+00
(PID.TID 0000.0001) %MON g__extforcing_g_fv_sd        =   0.0000000000000E+00
(PID.TID 0000.0001) %MON g__extforcing_g_fv_del2      =   0.0000000000000E+00
(PID.TID 0000.0001) %MON g__g_vcfl_g_uvel_max         =   8.9333265490566E-05
(PID.TID 0000.0001) %MON g__g_vcfl_g_vvel_max         =   3.5952703191051E-05
(PID.TID 0000.0001) %MON g__g_vcfl_g_wvel_max         =   6.2886187314704E-05
(PID.TID 0000.0001) %MON g__g_vcfl_g_W_hf_max         =   1.5092684955529E-04
(PID.TID 0000.0001) // =======================================================
(PID.TID 0000.0001) // End MONITOR dynamic field statistics
(PID.TID 0000.0001) // =======================================================
 cg2d: Sum(rhs),rhsMax =   4.18016645924968E-12  1.33666051514074E-02
 cg2d: Sum(rhs),rhsMax =   3.17969955920816E-12  1.15588664150394E+01
(PID.TID 0000.0001) // =======================================================
(PID.TID 0000.0001) // Begin MONITOR dynamic field statistics
(PID.TID 0000.0001) // =======================================================
(PID.TID 0000.0001) %MON g__time_tsnumber             =                    66
(PID.TID 0000.0001) %MON g__time_secondsf             =   2.8512000000000E+06
(PID.TID 0000.0001) %MON g__dynstat_g_eta_max         =   4.0343932808980E-03
(PID.TID 0000.0001) %MON g__dynstat_g_eta_min         =  -3.4671845604690E-05
(PID.TID 0000.0001) %MON g__dynstat_g_eta_mean        =  -3.6953247871387E-18
(PID.TID 0000.0001) %MON g__dynstat_g_eta_sd          =   5.1109832715440E-05
(PID.TID 0000.0001) %MON g__dynstat_g_eta_del2        =   1.8081759715858E-06
(PID.TID 0000.0001) %MON g__dynstat_g_uvel_max        =   6.0320109045500E-05
(PID.TID 0000.0001) %MON g__dynstat_g_uvel_min        =  -2.5610083120048E-04
(PID.TID 0000.0001) %MON g__dynstat_g_uvel_mean       =   1.9022237696977E-08
(PID.TID 0000.0001) %MON g__dynstat_g_uvel_sd         =   6.2097103041167E-07
(PID.TID 0000.0001) %MON g__dynstat_g_uvel_del2       =   4.7203229775691E-08
(PID.TID 0000.0001) %MON g__dynstat_g_vvel_max        =   3.6031205940575E-04
(PID.TID 0000.0001) %MON g__dynstat_g_vvel_min        =  -8.0819530669110E-05
(PID.TID 0000.0001) %MON g__dynstat_g_vvel_mean       =   1.7549648537720E-08
(PID.TID 0000.0001) %MON g__dynstat_g_vvel_sd         =   8.7074124106849E-07
(PID.TID 0000.0001) %MON g__dynstat_g_vvel_del2       =   5.1053075144060E-08
(PID.TID 0000.0001) %MON g__dynstat_g_wvel_max        =   9.4210566659826E-08
(PID.TID 0000.0001) %MON g__dynstat_g_wvel_min        =  -6.2534935851032E-08
(PID.TID 0000.0001) %MON g__dynstat_g_wvel_mean       =  -1.4848311665694E-27
(PID.TID 0000.0001) %MON g__dynstat_g_wvel_sd         =   5.8689702056741E-10
(PID.TID 0000.0001) %MON g__dynstat_g_wvel_del2       =   9.5891776975506E-11
(PID.TID 0000.0001) %MON g__dynstat_g_theta_max       =   6.9876755477875E-01
(PID.TID 0000.0001) %MON g__dynstat_g_theta_min       =  -3.3607715167891E-04
(PID.TID 0000.0001) %MON g__dynstat_g_theta_mean      =   2.9578759795321E-06
(PID.TID 0000.0001) %MON g__dynstat_g_theta_sd        =   1.1056074077226E-03
(PID.TID 0000.0001) %MON g__dynstat_g_theta_del2      =   3.0729345502260E-05
(PID.TID 0000.0001) %MON g__dynstat_g_salt_max        =   8.2605225917909E-03
(PID.TID 0000.0001) %MON g__dynstat_g_salt_min        =  -6.9388760780338E-03
(PID.TID 0000.0001) %MON g__dynstat_g_salt_mean       =   3.3460631870766E-09
(PID.TID 0000.0001) %MON g__dynstat_g_salt_sd         =   1.5644811041340E-05
(PID.TID 0000.0001) %MON g__dynstat_g_salt_del2       =   7.7987396914872E-07
(PID.TID 0000.0001) %MON g__dynstat_g_sst_max         =   6.9876755477875E-01
(PID.TID 0000.0001) %MON g__dynstat_g_sst_min         =  -5.2598735216196E-05
(PID.TID 0000.0001) %MON g__dynstat_g_sst_mean        =   1.3118214834399E-04
(PID.TID 0000.0001) %MON g__dynstat_g_sst_sd          =   8.8463469894415E-03
(PID.TID 0000.0001) %MON g__dynstat_g_sst_del2        =   2.7927635041505E-04
(PID.TID 0000.0001) %MON g__dynstat_g_sss_max         =   8.2605225917909E-03
(PID.TID 0000.0001) %MON g__dynstat_g_sss_min         =  -6.9388760780338E-03
(PID.TID 0000.0001) %MON g__dynstat_g_sss_mean        =   4.9545302624992E-07
(PID.TID 0000.0001) %MON g__dynstat_g_sss_sd          =   1.3633848627101E-04
(PID.TID 0000.0001) %MON g__dynstat_g_sss_del2        =   8.6279455135221E-06
(PID.TID 0000.0001) %MON g__extforcing_g_qnet_max     =   0.0000000000000E+00
(PID.TID 0000.0001) %MON g__extforcing_g_qnet_min     =   0.0000000000000E+00
(PID.TID 0000.0001) %MON g__extforcing_g_qnet_mean    =   0.0000000000000E+00
(PID.TID 0000.0001) %MON g__extforcing_g_qnet_sd      =   0.0000000000000E+00
(PID.TID 0000.0001) %MON g__extforcing_g_qnet_del2    =   0.0000000000000E+00
(PID.TID 0000.0001) %MON g__extforcing_g_empmr_max    =   0.0000000000000E+00
(PID.TID 0000.0001) %MON g__extforcing_g_empmr_min    =   0.0000000000000E+00
(PID.TID 0000.0001) %MON g__extforcing_g_empmr_mean   =   0.0000000000000E+00
(PID.TID 0000.0001) %MON g__extforcing_g_empmr_sd     =   0.0000000000000E+00
(PID.TID 0000.0001) %MON g__extforcing_g_empmr_del2   =   0.0000000000000E+00
(PID.TID 0000.0001) %MON g__extforcing_g_fu_max       =   0.0000000000000E+00
(PID.TID 0000.0001) %MON g__extforcing_g_fu_min       =   0.0000000000000E+00
(PID.TID 0000.0001) %MON g__extforcing_g_fu_mean      =   0.0000000000000E+00
(PID.TID 0000.0001) %MON g__extforcing_g_fu_sd        =   0.0000000000000E+00
(PID.TID 0000.0001) %MON g__extforcing_g_fu_del2      =   0.0000000000000E+00
(PID.TID 0000.0001) %MON g__extforcing_g_fv_max       =   0.0000000000000E+00
(PID.TID 0000.0001) %MON g__extforcing_g_fv_min       =   0.0000000000000E+00
(PID.TID 0000.0001) %MON g__extforcing_g_fv_mean      =   0.0000000000000E+00
(PID.TID 0000.0001) %MON g__extforcing_g_fv_sd        =   0.0000000000000E+00
(PID.TID 0000.0001) %MON g__extforcing_g_fv_del2      =   0.0000000000000E+00
(PID.TID 0000.0001) %MON g__g_vcfl_g_uvel_max         =   9.0256786840908E-05
(PID.TID 0000.0001) %MON g__g_vcfl_g_vvel_max         =   3.5001427215927E-05
(PID.TID 0000.0001) %MON g__g_vcfl_g_wvel_max         =   6.0227959578879E-05
(PID.TID 0000.0001) %MON g__g_vcfl_g_W_hf_max         =   1.4454710298931E-04
(PID.TID 0000.0001) // =======================================================
(PID.TID 0000.0001) // End MONITOR dynamic field statistics
(PID.TID 0000.0001) // =======================================================
 cg2d: Sum(rhs),rhsMax =   4.34536441396758E-12  1.33755107294816E-02
 cg2d: Sum(rhs),rhsMax =   3.71438990676154E-12  1.07539403354916E+01
(PID.TID 0000.0001) // =======================================================
(PID.TID 0000.0001) // Begin MONITOR dynamic field statistics
(PID.TID 0000.0001) // =======================================================
(PID.TID 0000.0001) %MON g__time_tsnumber             =                    67
(PID.TID 0000.0001) %MON g__time_secondsf             =   2.8944000000000E+06
(PID.TID 0000.0001) %MON g__dynstat_g_eta_max         =   4.0396320610511E-03
(PID.TID 0000.0001) %MON g__dynstat_g_eta_min         =  -3.0997587364740E-05
(PID.TID 0000.0001) %MON g__dynstat_g_eta_mean        =  -3.8319901862662E-18
(PID.TID 0000.0001) %MON g__dynstat_g_eta_sd          =   5.1188868027563E-05
(PID.TID 0000.0001) %MON g__dynstat_g_eta_del2        =   1.8041455711717E-06
(PID.TID 0000.0001) %MON g__dynstat_g_uvel_max        =   6.1131781382681E-05
(PID.TID 0000.0001) %MON g__dynstat_g_uvel_min        =  -2.5252424861666E-04
(PID.TID 0000.0001) %MON g__dynstat_g_uvel_mean       =   1.9457350468013E-08
(PID.TID 0000.0001) %MON g__dynstat_g_uvel_sd         =   6.2052761579311E-07
(PID.TID 0000.0001) %MON g__dynstat_g_uvel_del2       =   4.7228246776428E-08
(PID.TID 0000.0001) %MON g__dynstat_g_vvel_max        =   3.5210586953643E-04
(PID.TID 0000.0001) %MON g__dynstat_g_vvel_min        =  -7.8787659923539E-05
(PID.TID 0000.0001) %MON g__dynstat_g_vvel_mean       =   1.5408702712393E-08
(PID.TID 0000.0001) %MON g__dynstat_g_vvel_sd         =   8.5374973008756E-07
(PID.TID 0000.0001) %MON g__dynstat_g_vvel_del2       =   5.1161632853704E-08
(PID.TID 0000.0001) %MON g__dynstat_g_wvel_max        =   8.8581078804746E-08
(PID.TID 0000.0001) %MON g__dynstat_g_wvel_min        =  -6.5958899575884E-08
(PID.TID 0000.0001) %MON g__dynstat_g_wvel_mean       =   1.8444455504586E-28
(PID.TID 0000.0001) %MON g__dynstat_g_wvel_sd         =   5.5412227602266E-10
(PID.TID 0000.0001) %MON g__dynstat_g_wvel_del2       =   9.3767122826570E-11
(PID.TID 0000.0001) %MON g__dynstat_g_theta_max       =   6.9263322359813E-01
(PID.TID 0000.0001) %MON g__dynstat_g_theta_min       =  -3.4155423296972E-04
(PID.TID 0000.0001) %MON g__dynstat_g_theta_mean      =   2.9559016539146E-06
(PID.TID 0000.0001) %MON g__dynstat_g_theta_sd        =   1.0983714384625E-03
(PID.TID 0000.0001) %MON g__dynstat_g_theta_del2      =   3.0550096182093E-05
(PID.TID 0000.0001) %MON g__dynstat_g_salt_max        =   8.3095152921080E-03
(PID.TID 0000.0001) %MON g__dynstat_g_salt_min        =  -7.0003608776974E-03
(PID.TID 0000.0001) %MON g__dynstat_g_salt_mean       =   3.1259508030773E-09
(PID.TID 0000.0001) %MON g__dynstat_g_salt_sd         =   1.5758804392214E-05
(PID.TID 0000.0001) %MON g__dynstat_g_salt_del2       =   7.8483606445649E-07
(PID.TID 0000.0001) %MON g__dynstat_g_sst_max         =   6.9263322359813E-01
(PID.TID 0000.0001) %MON g__dynstat_g_sst_min         =  -5.2953432720462E-05
(PID.TID 0000.0001) %MON g__dynstat_g_sst_mean        =   1.3027863932531E-04
(PID.TID 0000.0001) %MON g__dynstat_g_sst_sd          =   8.7699538024175E-03
(PID.TID 0000.0001) %MON g__dynstat_g_sst_del2        =   2.7662199423134E-04
(PID.TID 0000.0001) %MON g__dynstat_g_sss_max         =   8.3095152921080E-03
(PID.TID 0000.0001) %MON g__dynstat_g_sss_min         =  -7.0003608776974E-03
(PID.TID 0000.0001) %MON g__dynstat_g_sss_mean        =   4.9824042155545E-07
(PID.TID 0000.0001) %MON g__dynstat_g_sss_sd          =   1.3732423840729E-04
(PID.TID 0000.0001) %MON g__dynstat_g_sss_del2        =   8.6806617256955E-06
(PID.TID 0000.0001) %MON g__extforcing_g_qnet_max     =   0.0000000000000E+00
(PID.TID 0000.0001) %MON g__extforcing_g_qnet_min     =   0.0000000000000E+00
(PID.TID 0000.0001) %MON g__extforcing_g_qnet_mean    =   0.0000000000000E+00
(PID.TID 0000.0001) %MON g__extforcing_g_qnet_sd      =   0.0000000000000E+00
(PID.TID 0000.0001) %MON g__extforcing_g_qnet_del2    =   0.0000000000000E+00
(PID.TID 0000.0001) %MON g__extforcing_g_empmr_max    =   0.0000000000000E+00
(PID.TID 0000.0001) %MON g__extforcing_g_empmr_min    =   0.0000000000000E+00
(PID.TID 0000.0001) %MON g__extforcing_g_empmr_mean   =   0.0000000000000E+00
(PID.TID 0000.0001) %MON g__extforcing_g_empmr_sd     =   0.0000000000000E+00
(PID.TID 0000.0001) %MON g__extforcing_g_empmr_del2   =   0.0000000000000E+00
(PID.TID 0000.0001) %MON g__extforcing_g_fu_max       =   0.0000000000000E+00
(PID.TID 0000.0001) %MON g__extforcing_g_fu_min       =   0.0000000000000E+00
(PID.TID 0000.0001) %MON g__extforcing_g_fu_mean      =   0.0000000000000E+00
(PID.TID 0000.0001) %MON g__extforcing_g_fu_sd        =   0.0000000000000E+00
(PID.TID 0000.0001) %MON g__extforcing_g_fu_del2      =   0.0000000000000E+00
(PID.TID 0000.0001) %MON g__extforcing_g_fv_max       =   0.0000000000000E+00
(PID.TID 0000.0001) %MON g__extforcing_g_fv_min       =   0.0000000000000E+00
(PID.TID 0000.0001) %MON g__extforcing_g_fv_mean      =   0.0000000000000E+00
(PID.TID 0000.0001) %MON g__extforcing_g_fv_sd        =   0.0000000000000E+00
(PID.TID 0000.0001) %MON g__extforcing_g_fv_del2      =   0.0000000000000E+00
(PID.TID 0000.0001) %MON g__g_vcfl_g_uvel_max         =   8.8996303419697E-05
(PID.TID 0000.0001) %MON g__g_vcfl_g_vvel_max         =   3.4204261675854E-05
(PID.TID 0000.0001) %MON g__g_vcfl_g_wvel_max         =   5.7321929679104E-05
(PID.TID 0000.0001) %MON g__g_vcfl_g_W_hf_max         =   1.3757263122985E-04
(PID.TID 0000.0001) // =======================================================
(PID.TID 0000.0001) // End MONITOR dynamic field statistics
(PID.TID 0000.0001) // =======================================================
 cg2d: Sum(rhs),rhsMax =   4.51601985201734E-12  1.33556896162827E-02
 cg2d: Sum(rhs),rhsMax =   3.27418647749766E-12  9.88730994742746E+00
(PID.TID 0000.0001) // =======================================================
(PID.TID 0000.0001) // Begin MONITOR dynamic field statistics
(PID.TID 0000.0001) // =======================================================
(PID.TID 0000.0001) %MON g__time_tsnumber             =                    68
(PID.TID 0000.0001) %MON g__time_secondsf             =   2.9376000000000E+06
(PID.TID 0000.0001) %MON g__dynstat_g_eta_max         =   4.0360813373487E-03
(PID.TID 0000.0001) %MON g__dynstat_g_eta_min         =  -2.7255070327948E-05
(PID.TID 0000.0001) %MON g__dynstat_g_eta_mean        =  -3.9606084804869E-18
(PID.TID 0000.0001) %MON g__dynstat_g_eta_sd          =   5.1157158073101E-05
(PID.TID 0000.0001) %MON g__dynstat_g_eta_del2        =   1.7966560685922E-06
(PID.TID 0000.0001) %MON g__dynstat_g_uvel_max        =   6.1146976952108E-05
(PID.TID 0000.0001) %MON g__dynstat_g_uvel_min        =  -2.4368417948237E-04
(PID.TID 0000.0001) %MON g__dynstat_g_uvel_mean       =   2.0159560811636E-08
(PID.TID 0000.0001) %MON g__dynstat_g_uvel_sd         =   6.0878574066072E-07
(PID.TID 0000.0001) %MON g__dynstat_g_uvel_del2       =   4.7053170909213E-08
(PID.TID 0000.0001) %MON g__dynstat_g_vvel_max        =   3.4562293818426E-04
(PID.TID 0000.0001) %MON g__dynstat_g_vvel_min        =  -7.6921264134225E-05
(PID.TID 0000.0001) %MON g__dynstat_g_vvel_mean       =   1.3365077599632E-08
(PID.TID 0000.0001) %MON g__dynstat_g_vvel_sd         =   8.4113603702693E-07
(PID.TID 0000.0001) %MON g__dynstat_g_vvel_del2       =   5.1502818683164E-08
(PID.TID 0000.0001) %MON g__dynstat_g_wvel_max        =   8.3081912619977E-08
(PID.TID 0000.0001) %MON g__dynstat_g_wvel_min        =  -6.7824325064438E-08
(PID.TID 0000.0001) %MON g__dynstat_g_wvel_mean       =   1.4822062440592E-28
(PID.TID 0000.0001) %MON g__dynstat_g_wvel_sd         =   5.2098307354992E-10
(PID.TID 0000.0001) %MON g__dynstat_g_wvel_del2       =   9.1433147957802E-11
(PID.TID 0000.0001) %MON g__dynstat_g_theta_max       =   6.8587218941353E-01
(PID.TID 0000.0001) %MON g__dynstat_g_theta_min       =  -3.4701891235337E-04
(PID.TID 0000.0001) %MON g__dynstat_g_theta_mean      =   2.9493000445710E-06
(PID.TID 0000.0001) %MON g__dynstat_g_theta_sd        =   1.0898787536571E-03
(PID.TID 0000.0001) %MON g__dynstat_g_theta_del2      =   3.0330355074035E-05
(PID.TID 0000.0001) %MON g__dynstat_g_salt_max        =   8.3467499158056E-03
(PID.TID 0000.0001) %MON g__dynstat_g_salt_min        =  -7.0494649696775E-03
(PID.TID 0000.0001) %MON g__dynstat_g_salt_mean       =   2.9022708544508E-09
(PID.TID 0000.0001) %MON g__dynstat_g_salt_sd         =   1.5848312201471E-05
(PID.TID 0000.0001) %MON g__dynstat_g_salt_del2       =   7.8884539289458E-07
(PID.TID 0000.0001) %MON g__dynstat_g_sst_max         =   6.8587218941353E-01
(PID.TID 0000.0001) %MON g__dynstat_g_sst_min         =  -5.4120751814856E-05
(PID.TID 0000.0001) %MON g__dynstat_g_sst_mean        =   1.2924700781946E-04
(PID.TID 0000.0001) %MON g__dynstat_g_sst_sd          =   8.6855455753124E-03
(PID.TID 0000.0001) %MON g__dynstat_g_sst_del2        =   2.7373362017953E-04
(PID.TID 0000.0001) %MON g__dynstat_g_sss_max         =   8.3467499158056E-03
(PID.TID 0000.0001) %MON g__dynstat_g_sss_min         =  -7.0494649696775E-03
(PID.TID 0000.0001) %MON g__dynstat_g_sss_mean        =   5.0089753793706E-07
(PID.TID 0000.0001) %MON g__dynstat_g_sss_sd          =   1.3809534248608E-04
(PID.TID 0000.0001) %MON g__dynstat_g_sss_del2        =   8.7210292142270E-06
(PID.TID 0000.0001) %MON g__extforcing_g_qnet_max     =   0.0000000000000E+00
(PID.TID 0000.0001) %MON g__extforcing_g_qnet_min     =   0.0000000000000E+00
(PID.TID 0000.0001) %MON g__extforcing_g_qnet_mean    =   0.0000000000000E+00
(PID.TID 0000.0001) %MON g__extforcing_g_qnet_sd      =   0.0000000000000E+00
(PID.TID 0000.0001) %MON g__extforcing_g_qnet_del2    =   0.0000000000000E+00
(PID.TID 0000.0001) %MON g__extforcing_g_empmr_max    =   0.0000000000000E+00
(PID.TID 0000.0001) %MON g__extforcing_g_empmr_min    =   0.0000000000000E+00
(PID.TID 0000.0001) %MON g__extforcing_g_empmr_mean   =   0.0000000000000E+00
(PID.TID 0000.0001) %MON g__extforcing_g_empmr_sd     =   0.0000000000000E+00
(PID.TID 0000.0001) %MON g__extforcing_g_empmr_del2   =   0.0000000000000E+00
(PID.TID 0000.0001) %MON g__extforcing_g_fu_max       =   0.0000000000000E+00
(PID.TID 0000.0001) %MON g__extforcing_g_fu_min       =   0.0000000000000E+00
(PID.TID 0000.0001) %MON g__extforcing_g_fu_mean      =   0.0000000000000E+00
(PID.TID 0000.0001) %MON g__extforcing_g_fu_sd        =   0.0000000000000E+00
(PID.TID 0000.0001) %MON g__extforcing_g_fu_del2      =   0.0000000000000E+00
(PID.TID 0000.0001) %MON g__extforcing_g_fv_max       =   0.0000000000000E+00
(PID.TID 0000.0001) %MON g__extforcing_g_fv_min       =   0.0000000000000E+00
(PID.TID 0000.0001) %MON g__extforcing_g_fv_mean      =   0.0000000000000E+00
(PID.TID 0000.0001) %MON g__extforcing_g_fv_sd        =   0.0000000000000E+00
(PID.TID 0000.0001) %MON g__extforcing_g_fv_del2      =   0.0000000000000E+00
(PID.TID 0000.0001) %MON g__g_vcfl_g_uvel_max         =   8.5880826473477E-05
(PID.TID 0000.0001) %MON g__g_vcfl_g_vvel_max         =   3.3574496881851E-05
(PID.TID 0000.0001) %MON g__g_vcfl_g_wvel_max         =   5.4381969069275E-05
(PID.TID 0000.0001) %MON g__g_vcfl_g_W_hf_max         =   1.3051672576626E-04
(PID.TID 0000.0001) // =======================================================
(PID.TID 0000.0001) // End MONITOR dynamic field statistics
(PID.TID 0000.0001) // =======================================================
 cg2d: Sum(rhs),rhsMax =   4.68553960772024E-12  1.33056590862914E-02
 cg2d: Sum(rhs),rhsMax =   3.25178078908195E-12  8.98660434991350E+00
(PID.TID 0000.0001) // =======================================================
(PID.TID 0000.0001) // Begin MONITOR dynamic field statistics
(PID.TID 0000.0001) // =======================================================
(PID.TID 0000.0001) %MON g__time_tsnumber             =                    69
(PID.TID 0000.0001) %MON g__time_secondsf             =   2.9808000000000E+06
(PID.TID 0000.0001) %MON g__dynstat_g_eta_max         =   4.0231657135826E-03
(PID.TID 0000.0001) %MON g__dynstat_g_eta_min         =  -2.3777833818433E-05
(PID.TID 0000.0001) %MON g__dynstat_g_eta_mean        =  -4.0770669981018E-18
(PID.TID 0000.0001) %MON g__dynstat_g_eta_sd          =   5.1006608928458E-05
(PID.TID 0000.0001) %MON g__dynstat_g_eta_del2        =   1.7854699875043E-06
(PID.TID 0000.0001) %MON g__dynstat_g_uvel_max        =   6.0442975940382E-05
(PID.TID 0000.0001) %MON g__dynstat_g_uvel_min        =  -2.3058127021210E-04
(PID.TID 0000.0001) %MON g__dynstat_g_uvel_mean       =   2.1005221644497E-08
(PID.TID 0000.0001) %MON g__dynstat_g_uvel_sd         =   5.8702701629238E-07
(PID.TID 0000.0001) %MON g__dynstat_g_uvel_del2       =   4.6764136936712E-08
(PID.TID 0000.0001) %MON g__dynstat_g_vvel_max        =   3.4089488534287E-04
(PID.TID 0000.0001) %MON g__dynstat_g_vvel_min        =  -7.5252199319408E-05
(PID.TID 0000.0001) %MON g__dynstat_g_vvel_mean       =   1.1508021731374E-08
(PID.TID 0000.0001) %MON g__dynstat_g_vvel_sd         =   8.3284011865140E-07
(PID.TID 0000.0001) %MON g__dynstat_g_vvel_del2       =   5.1963859930496E-08
(PID.TID 0000.0001) %MON g__dynstat_g_wvel_max        =   7.8083993611061E-08
(PID.TID 0000.0001) %MON g__dynstat_g_wvel_min        =  -6.8205885447241E-08
(PID.TID 0000.0001) %MON g__dynstat_g_wvel_mean       =  -1.9618670840789E-27
(PID.TID 0000.0001) %MON g__dynstat_g_wvel_sd         =   4.8975524378175E-10
(PID.TID 0000.0001) %MON g__dynstat_g_wvel_del2       =   8.9191296817555E-11
(PID.TID 0000.0001) %MON g__dynstat_g_theta_max       =   6.7852979338402E-01
(PID.TID 0000.0001) %MON g__dynstat_g_theta_min       =  -3.5260536276151E-04
(PID.TID 0000.0001) %MON g__dynstat_g_theta_mean      =   2.9382389586609E-06
(PID.TID 0000.0001) %MON g__dynstat_g_theta_sd        =   1.0802059795287E-03
(PID.TID 0000.0001) %MON g__dynstat_g_theta_del2      =   3.0072706454875E-05
(PID.TID 0000.0001) %MON g__dynstat_g_salt_max        =   8.3729484454771E-03
(PID.TID 0000.0001) %MON g__dynstat_g_salt_min        =  -7.0862339671628E-03
(PID.TID 0000.0001) %MON g__dynstat_g_salt_mean       =   2.7001460173456E-09
(PID.TID 0000.0001) %MON g__dynstat_g_salt_sd         =   1.5914056247742E-05
(PID.TID 0000.0001) %MON g__dynstat_g_salt_del2       =   7.9199891836267E-07
(PID.TID 0000.0001) %MON g__dynstat_g_sst_max         =   6.7852979338402E-01
(PID.TID 0000.0001) %MON g__dynstat_g_sst_min         =  -5.6048975394399E-05
(PID.TID 0000.0001) %MON g__dynstat_g_sst_mean        =   1.2809330699766E-04
(PID.TID 0000.0001) %MON g__dynstat_g_sst_sd          =   8.5936911111361E-03
(PID.TID 0000.0001) %MON g__dynstat_g_sst_del2        =   2.7063238165479E-04
(PID.TID 0000.0001) %MON g__dynstat_g_sss_max         =   8.3729484454771E-03
(PID.TID 0000.0001) %MON g__dynstat_g_sss_min         =  -7.0862339671628E-03
(PID.TID 0000.0001) %MON g__dynstat_g_sss_mean        =   5.0335270944254E-07
(PID.TID 0000.0001) %MON g__dynstat_g_sss_sd          =   1.3865888332265E-04
(PID.TID 0000.0001) %MON g__dynstat_g_sss_del2        =   8.7501033630118E-06
(PID.TID 0000.0001) %MON g__extforcing_g_qnet_max     =   0.0000000000000E+00
(PID.TID 0000.0001) %MON g__extforcing_g_qnet_min     =   0.0000000000000E+00
(PID.TID 0000.0001) %MON g__extforcing_g_qnet_mean    =   0.0000000000000E+00
(PID.TID 0000.0001) %MON g__extforcing_g_qnet_sd      =   0.0000000000000E+00
(PID.TID 0000.0001) %MON g__extforcing_g_qnet_del2    =   0.0000000000000E+00
(PID.TID 0000.0001) %MON g__extforcing_g_empmr_max    =   0.0000000000000E+00
(PID.TID 0000.0001) %MON g__extforcing_g_empmr_min    =   0.0000000000000E+00
(PID.TID 0000.0001) %MON g__extforcing_g_empmr_mean   =   0.0000000000000E+00
(PID.TID 0000.0001) %MON g__extforcing_g_empmr_sd     =   0.0000000000000E+00
(PID.TID 0000.0001) %MON g__extforcing_g_empmr_del2   =   0.0000000000000E+00
(PID.TID 0000.0001) %MON g__extforcing_g_fu_max       =   0.0000000000000E+00
(PID.TID 0000.0001) %MON g__extforcing_g_fu_min       =   0.0000000000000E+00
(PID.TID 0000.0001) %MON g__extforcing_g_fu_mean      =   0.0000000000000E+00
(PID.TID 0000.0001) %MON g__extforcing_g_fu_sd        =   0.0000000000000E+00
(PID.TID 0000.0001) %MON g__extforcing_g_fu_del2      =   0.0000000000000E+00
(PID.TID 0000.0001) %MON g__extforcing_g_fv_max       =   0.0000000000000E+00
(PID.TID 0000.0001) %MON g__extforcing_g_fv_min       =   0.0000000000000E+00
(PID.TID 0000.0001) %MON g__extforcing_g_fv_mean      =   0.0000000000000E+00
(PID.TID 0000.0001) %MON g__extforcing_g_fv_sd        =   0.0000000000000E+00
(PID.TID 0000.0001) %MON g__extforcing_g_fv_del2      =   0.0000000000000E+00
(PID.TID 0000.0001) %MON g__g_vcfl_g_uvel_max         =   8.1263010578623E-05
(PID.TID 0000.0001) %MON g__g_vcfl_g_vvel_max         =   3.3115204462735E-05
(PID.TID 0000.0001) %MON g__g_vcfl_g_wvel_max         =   5.1610171446107E-05
(PID.TID 0000.0001) %MON g__g_vcfl_g_W_hf_max         =   1.2386441147066E-04
(PID.TID 0000.0001) // =======================================================
(PID.TID 0000.0001) // End MONITOR dynamic field statistics
(PID.TID 0000.0001) // =======================================================
 cg2d: Sum(rhs),rhsMax =   4.85007386869533E-12  1.32261960991005E-02
 cg2d: Sum(rhs),rhsMax =   3.44625716852676E-12  8.07892755116576E+00
(PID.TID 0000.0001) // =======================================================
(PID.TID 0000.0001) // Begin MONITOR dynamic field statistics
(PID.TID 0000.0001) // =======================================================
(PID.TID 0000.0001) %MON g__time_tsnumber             =                    70
(PID.TID 0000.0001) %MON g__time_secondsf             =   3.0240000000000E+06
(PID.TID 0000.0001) %MON g__dynstat_g_eta_max         =   4.0010039370287E-03
(PID.TID 0000.0001) %MON g__dynstat_g_eta_min         =  -2.1532500947248E-05
(PID.TID 0000.0001) %MON g__dynstat_g_eta_mean        =  -4.1726298670643E-18
(PID.TID 0000.0001) %MON g__dynstat_g_eta_sd          =   5.0737869190799E-05
(PID.TID 0000.0001) %MON g__dynstat_g_eta_del2        =   1.7706665921926E-06
(PID.TID 0000.0001) %MON g__dynstat_g_uvel_max        =   5.9083564824079E-05
(PID.TID 0000.0001) %MON g__dynstat_g_uvel_min        =  -2.1421727402430E-04
(PID.TID 0000.0001) %MON g__dynstat_g_uvel_mean       =   2.1861530034606E-08
(PID.TID 0000.0001) %MON g__dynstat_g_uvel_sd         =   5.5679171242048E-07
(PID.TID 0000.0001) %MON g__dynstat_g_uvel_del2       =   4.6340542419116E-08
(PID.TID 0000.0001) %MON g__dynstat_g_vvel_max        =   3.3785785106065E-04
(PID.TID 0000.0001) %MON g__dynstat_g_vvel_min        =  -7.3818618316624E-05
(PID.TID 0000.0001) %MON g__dynstat_g_vvel_mean       =   9.9055865320618E-09
(PID.TID 0000.0001) %MON g__dynstat_g_vvel_sd         =   8.2852887291878E-07
(PID.TID 0000.0001) %MON g__dynstat_g_vvel_del2       =   5.2530106474856E-08
(PID.TID 0000.0001) %MON g__dynstat_g_wvel_max        =   7.3899524712004E-08
(PID.TID 0000.0001) %MON g__dynstat_g_wvel_min        =  -6.8560672845613E-08
(PID.TID 0000.0001) %MON g__dynstat_g_wvel_mean       =  -6.1270066257525E-28
(PID.TID 0000.0001) %MON g__dynstat_g_wvel_sd         =   4.6237712068716E-10
(PID.TID 0000.0001) %MON g__dynstat_g_wvel_del2       =   8.7492101559836E-11
(PID.TID 0000.0001) %MON g__dynstat_g_theta_max       =   6.7069559629923E-01
(PID.TID 0000.0001) %MON g__dynstat_g_theta_min       =  -3.5842489382925E-04
(PID.TID 0000.0001) %MON g__dynstat_g_theta_mean      =   2.9232020660769E-06
(PID.TID 0000.0001) %MON g__dynstat_g_theta_sd        =   1.0695203870249E-03
(PID.TID 0000.0001) %MON g__dynstat_g_theta_del2      =   2.9783019283189E-05
(PID.TID 0000.0001) %MON g__dynstat_g_salt_max        =   8.3895024962711E-03
(PID.TID 0000.0001) %MON g__dynstat_g_salt_min        =  -7.1115665008243E-03
(PID.TID 0000.0001) %MON g__dynstat_g_salt_mean       =   2.5427275500456E-09
(PID.TID 0000.0001) %MON g__dynstat_g_salt_sd         =   1.5958363670788E-05
(PID.TID 0000.0001) %MON g__dynstat_g_salt_del2       =   7.9429656759081E-07
(PID.TID 0000.0001) %MON g__dynstat_g_sst_max         =   6.7069559629923E-01
(PID.TID 0000.0001) %MON g__dynstat_g_sst_min         =  -5.8654422445158E-05
(PID.TID 0000.0001) %MON g__dynstat_g_sst_mean        =   1.2683193739442E-04
(PID.TID 0000.0001) %MON g__dynstat_g_sst_sd          =   8.4955254762882E-03
(PID.TID 0000.0001) %MON g__dynstat_g_sst_del2        =   2.6735272355194E-04
(PID.TID 0000.0001) %MON g__dynstat_g_sss_max         =   8.3895024962711E-03
(PID.TID 0000.0001) %MON g__dynstat_g_sss_min         =  -7.1115665008243E-03
(PID.TID 0000.0001) %MON g__dynstat_g_sss_mean        =   5.0571943216605E-07
(PID.TID 0000.0001) %MON g__dynstat_g_sss_sd          =   1.3903544301955E-04
(PID.TID 0000.0001) %MON g__dynstat_g_sss_del2        =   8.7688601695771E-06
(PID.TID 0000.0001) %MON g__extforcing_g_qnet_max     =   0.0000000000000E+00
(PID.TID 0000.0001) %MON g__extforcing_g_qnet_min     =   0.0000000000000E+00
(PID.TID 0000.0001) %MON g__extforcing_g_qnet_mean    =   0.0000000000000E+00
(PID.TID 0000.0001) %MON g__extforcing_g_qnet_sd      =   0.0000000000000E+00
(PID.TID 0000.0001) %MON g__extforcing_g_qnet_del2    =   0.0000000000000E+00
(PID.TID 0000.0001) %MON g__extforcing_g_empmr_max    =   0.0000000000000E+00
(PID.TID 0000.0001) %MON g__extforcing_g_empmr_min    =   0.0000000000000E+00
(PID.TID 0000.0001) %MON g__extforcing_g_empmr_mean   =   0.0000000000000E+00
(PID.TID 0000.0001) %MON g__extforcing_g_empmr_sd     =   0.0000000000000E+00
(PID.TID 0000.0001) %MON g__extforcing_g_empmr_del2   =   0.0000000000000E+00
(PID.TID 0000.0001) %MON g__extforcing_g_fu_max       =   0.0000000000000E+00
(PID.TID 0000.0001) %MON g__extforcing_g_fu_min       =   0.0000000000000E+00
(PID.TID 0000.0001) %MON g__extforcing_g_fu_mean      =   0.0000000000000E+00
(PID.TID 0000.0001) %MON g__extforcing_g_fu_sd        =   0.0000000000000E+00
(PID.TID 0000.0001) %MON g__extforcing_g_fu_del2      =   0.0000000000000E+00
(PID.TID 0000.0001) %MON g__extforcing_g_fv_max       =   0.0000000000000E+00
(PID.TID 0000.0001) %MON g__extforcing_g_fv_min       =   0.0000000000000E+00
(PID.TID 0000.0001) %MON g__extforcing_g_fv_mean      =   0.0000000000000E+00
(PID.TID 0000.0001) %MON g__extforcing_g_fv_sd        =   0.0000000000000E+00
(PID.TID 0000.0001) %MON g__extforcing_g_fv_del2      =   0.0000000000000E+00
(PID.TID 0000.0001) %MON g__g_vcfl_g_uvel_max         =   7.5495900378847E-05
(PID.TID 0000.0001) %MON g__g_vcfl_g_vvel_max         =   3.2820180936304E-05
(PID.TID 0000.0001) %MON g__g_vcfl_g_wvel_max         =   4.9363684448841E-05
(PID.TID 0000.0001) %MON g__g_vcfl_g_W_hf_max         =   1.1847284267722E-04
(PID.TID 0000.0001) // =======================================================
(PID.TID 0000.0001) // End MONITOR dynamic field statistics
(PID.TID 0000.0001) // =======================================================
 myIter=  70
(PID.TID 0000.0001) // Model state written, timestep        70
(PID.TID 0000.0001) 
 cg2d: Sum(rhs),rhsMax =   5.00704058059871E-12  1.31201677944706E-02
 cg2d: Sum(rhs),rhsMax =   3.52166906747442E-12  7.98205113094410E+00
(PID.TID 0000.0001) // =======================================================
(PID.TID 0000.0001) // Begin MONITOR dynamic field statistics
(PID.TID 0000.0001) // =======================================================
(PID.TID 0000.0001) %MON g__time_tsnumber             =                    71
(PID.TID 0000.0001) %MON g__time_secondsf             =   3.0672000000000E+06
(PID.TID 0000.0001) %MON g__dynstat_g_eta_max         =   3.9703715239430E-03
(PID.TID 0000.0001) %MON g__dynstat_g_eta_min         =  -1.9959613599721E-05
(PID.TID 0000.0001) %MON g__dynstat_g_eta_mean        =  -4.2508709092288E-18
(PID.TID 0000.0001) %MON g__dynstat_g_eta_sd          =   5.0359933650796E-05
(PID.TID 0000.0001) %MON g__dynstat_g_eta_del2        =   1.7535379934446E-06
(PID.TID 0000.0001) %MON g__dynstat_g_uvel_max        =   5.7120235224054E-05
(PID.TID 0000.0001) %MON g__dynstat_g_uvel_min        =  -1.9553974096757E-04
(PID.TID 0000.0001) %MON g__dynstat_g_uvel_mean       =   2.2597017254832E-08
(PID.TID 0000.0001) %MON g__dynstat_g_uvel_sd         =   5.1980101525216E-07
(PID.TID 0000.0001) %MON g__dynstat_g_uvel_del2       =   4.5723053806352E-08
(PID.TID 0000.0001) %MON g__dynstat_g_vvel_max        =   3.3636787687408E-04
(PID.TID 0000.0001) %MON g__dynstat_g_vvel_min        =  -7.2660958959118E-05
(PID.TID 0000.0001) %MON g__dynstat_g_vvel_mean       =   8.6022707354032E-09
(PID.TID 0000.0001) %MON g__dynstat_g_vvel_sd         =   8.2764600863767E-07
(PID.TID 0000.0001) %MON g__dynstat_g_vvel_del2       =   5.3137525038714E-08
(PID.TID 0000.0001) %MON g__dynstat_g_wvel_max        =   7.0767903139522E-08
(PID.TID 0000.0001) %MON g__dynstat_g_wvel_min        =  -6.7505360954810E-08
(PID.TID 0000.0001) %MON g__dynstat_g_wvel_mean       =   6.0432329757723E-28
(PID.TID 0000.0001) %MON g__dynstat_g_wvel_sd         =   4.4014260748626E-10
(PID.TID 0000.0001) %MON g__dynstat_g_wvel_del2       =   8.6931432218342E-11
(PID.TID 0000.0001) %MON g__dynstat_g_theta_max       =   6.6249212439007E-01
(PID.TID 0000.0001) %MON g__dynstat_g_theta_min       =  -3.6455965752781E-04
(PID.TID 0000.0001) %MON g__dynstat_g_theta_mean      =   2.9049168428759E-06
(PID.TID 0000.0001) %MON g__dynstat_g_theta_sd        =   1.0580583302974E-03
(PID.TID 0000.0001) %MON g__dynstat_g_theta_del2      =   2.9468427915448E-05
(PID.TID 0000.0001) %MON g__dynstat_g_salt_max        =   8.3983396849757E-03
(PID.TID 0000.0001) %MON g__dynstat_g_salt_min        =  -7.1270710208232E-03
(PID.TID 0000.0001) %MON g__dynstat_g_salt_mean       =   2.4485589334648E-09
(PID.TID 0000.0001) %MON g__dynstat_g_salt_sd         =   1.5984876016510E-05
(PID.TID 0000.0001) %MON g__dynstat_g_salt_del2       =   7.9590208459884E-07
(PID.TID 0000.0001) %MON g__dynstat_g_sst_max         =   6.6249212439007E-01
(PID.TID 0000.0001) %MON g__dynstat_g_sst_min         =  -6.1827739037074E-05
(PID.TID 0000.0001) %MON g__dynstat_g_sst_mean        =   1.2548526648583E-04
(PID.TID 0000.0001) %MON g__dynstat_g_sst_sd          =   8.3926065420241E-03
(PID.TID 0000.0001) %MON g__dynstat_g_sst_del2        =   2.6393949419094E-04
(PID.TID 0000.0001) %MON g__dynstat_g_sss_max         =   8.3983396849757E-03
(PID.TID 0000.0001) %MON g__dynstat_g_sss_min         =  -7.1270710208232E-03
(PID.TID 0000.0001) %MON g__dynstat_g_sss_mean        =   5.0832552510388E-07
(PID.TID 0000.0001) %MON g__dynstat_g_sss_sd          =   1.3925666307297E-04
(PID.TID 0000.0001) %MON g__dynstat_g_sss_del2        =   8.7793306644380E-06
(PID.TID 0000.0001) %MON g__extforcing_g_qnet_max     =   0.0000000000000E+00
(PID.TID 0000.0001) %MON g__extforcing_g_qnet_min     =   0.0000000000000E+00
(PID.TID 0000.0001) %MON g__extforcing_g_qnet_mean    =   0.0000000000000E+00
(PID.TID 0000.0001) %MON g__extforcing_g_qnet_sd      =   0.0000000000000E+00
(PID.TID 0000.0001) %MON g__extforcing_g_qnet_del2    =   0.0000000000000E+00
(PID.TID 0000.0001) %MON g__extforcing_g_empmr_max    =   0.0000000000000E+00
(PID.TID 0000.0001) %MON g__extforcing_g_empmr_min    =   0.0000000000000E+00
(PID.TID 0000.0001) %MON g__extforcing_g_empmr_mean   =   0.0000000000000E+00
(PID.TID 0000.0001) %MON g__extforcing_g_empmr_sd     =   0.0000000000000E+00
(PID.TID 0000.0001) %MON g__extforcing_g_empmr_del2   =   0.0000000000000E+00
(PID.TID 0000.0001) %MON g__extforcing_g_fu_max       =   0.0000000000000E+00
(PID.TID 0000.0001) %MON g__extforcing_g_fu_min       =   0.0000000000000E+00
(PID.TID 0000.0001) %MON g__extforcing_g_fu_mean      =   0.0000000000000E+00
(PID.TID 0000.0001) %MON g__extforcing_g_fu_sd        =   0.0000000000000E+00
(PID.TID 0000.0001) %MON g__extforcing_g_fu_del2      =   0.0000000000000E+00
(PID.TID 0000.0001) %MON g__extforcing_g_fv_max       =   0.0000000000000E+00
(PID.TID 0000.0001) %MON g__extforcing_g_fv_min       =   0.0000000000000E+00
(PID.TID 0000.0001) %MON g__extforcing_g_fv_mean      =   0.0000000000000E+00
(PID.TID 0000.0001) %MON g__extforcing_g_fv_sd        =   0.0000000000000E+00
(PID.TID 0000.0001) %MON g__extforcing_g_fv_del2      =   0.0000000000000E+00
(PID.TID 0000.0001) %MON g__g_vcfl_g_uvel_max         =   6.8913437870182E-05
(PID.TID 0000.0001) %MON g__g_vcfl_g_vvel_max         =   3.2675441892235E-05
(PID.TID 0000.0001) %MON g__g_vcfl_g_wvel_max         =   4.8603859887463E-05
(PID.TID 0000.0001) %MON g__g_vcfl_g_W_hf_max         =   1.1664926372991E-04
(PID.TID 0000.0001) // =======================================================
(PID.TID 0000.0001) // End MONITOR dynamic field statistics
(PID.TID 0000.0001) // =======================================================
 cg2d: Sum(rhs),rhsMax =   5.15169682950548E-12  1.29921973476040E-02
 cg2d: Sum(rhs),rhsMax =   2.89610002646157E-12  8.00388417689157E+00
(PID.TID 0000.0001) // =======================================================
(PID.TID 0000.0001) // Begin MONITOR dynamic field statistics
(PID.TID 0000.0001) // =======================================================
(PID.TID 0000.0001) %MON g__time_tsnumber             =                    72
(PID.TID 0000.0001) %MON g__time_secondsf             =   3.1104000000000E+06
(PID.TID 0000.0001) %MON g__dynstat_g_eta_max         =   3.9326109348854E-03
(PID.TID 0000.0001) %MON g__dynstat_g_eta_min         =  -1.9182943748471E-05
(PID.TID 0000.0001) %MON g__dynstat_g_eta_mean        =  -4.3177097051700E-18
(PID.TID 0000.0001) %MON g__dynstat_g_eta_sd          =   4.9889101125295E-05
(PID.TID 0000.0001) %MON g__dynstat_g_eta_del2        =   1.7357727265637E-06
(PID.TID 0000.0001) %MON g__dynstat_g_uvel_max        =   5.4596047523373E-05
(PID.TID 0000.0001) %MON g__dynstat_g_uvel_min        =  -1.7540049958628E-04
(PID.TID 0000.0001) %MON g__dynstat_g_uvel_mean       =   2.3091740632187E-08
(PID.TID 0000.0001) %MON g__dynstat_g_uvel_sd         =   4.7792434450709E-07
(PID.TID 0000.0001) %MON g__dynstat_g_uvel_del2       =   4.4856643465116E-08
(PID.TID 0000.0001) %MON g__dynstat_g_vvel_max        =   3.3622034573115E-04
(PID.TID 0000.0001) %MON g__dynstat_g_vvel_min        =  -7.1816406854913E-05
(PID.TID 0000.0001) %MON g__dynstat_g_vvel_mean       =   7.6184112004195E-09
(PID.TID 0000.0001) %MON g__dynstat_g_vvel_sd         =   8.2948232671358E-07
(PID.TID 0000.0001) %MON g__dynstat_g_vvel_del2       =   5.3691040119562E-08
(PID.TID 0000.0001) %MON g__dynstat_g_wvel_max        =   6.8845407065104E-08
(PID.TID 0000.0001) %MON g__dynstat_g_wvel_min        =  -6.4757313405590E-08
(PID.TID 0000.0001) %MON g__dynstat_g_wvel_mean       =   2.1010754745333E-27
(PID.TID 0000.0001) %MON g__dynstat_g_wvel_sd         =   4.2352062881084E-10
(PID.TID 0000.0001) %MON g__dynstat_g_wvel_del2       =   8.6869329050758E-11
(PID.TID 0000.0001) %MON g__dynstat_g_theta_max       =   6.5406224204858E-01
(PID.TID 0000.0001) %MON g__dynstat_g_theta_min       =  -3.7105957688205E-04
(PID.TID 0000.0001) %MON g__dynstat_g_theta_mean      =   2.8842762775847E-06
(PID.TID 0000.0001) %MON g__dynstat_g_theta_sd        =   1.0461002613861E-03
(PID.TID 0000.0001) %MON g__dynstat_g_theta_del2      =   2.9138907740482E-05
(PID.TID 0000.0001) %MON g__dynstat_g_salt_max        =   8.4017594058942E-03
(PID.TID 0000.0001) %MON g__dynstat_g_salt_min        =  -7.1348762899199E-03
(PID.TID 0000.0001) %MON g__dynstat_g_salt_mean       =   2.4302378999265E-09
(PID.TID 0000.0001) %MON g__dynstat_g_salt_sd         =   1.5998169080077E-05
(PID.TID 0000.0001) %MON g__dynstat_g_salt_del2       =   7.9704918751693E-07
(PID.TID 0000.0001) %MON g__dynstat_g_sst_max         =   6.5406224204858E-01
(PID.TID 0000.0001) %MON g__dynstat_g_sst_min         =  -6.5442755286629E-05
(PID.TID 0000.0001) %MON g__dynstat_g_sst_mean        =   1.2407895900517E-04
(PID.TID 0000.0001) %MON g__dynstat_g_sst_sd          =   8.2867537637819E-03
(PID.TID 0000.0001) %MON g__dynstat_g_sst_del2        =   2.6045392858777E-04
(PID.TID 0000.0001) %MON g__dynstat_g_sss_max         =   8.4017594058942E-03
(PID.TID 0000.0001) %MON g__dynstat_g_sss_min         =  -7.1348762899199E-03
(PID.TID 0000.0001) %MON g__dynstat_g_sss_mean        =   5.1119000144211E-07
(PID.TID 0000.0001) %MON g__dynstat_g_sss_sd          =   1.3936211978193E-04
(PID.TID 0000.0001) %MON g__dynstat_g_sss_del2        =   8.7838449275769E-06
(PID.TID 0000.0001) %MON g__extforcing_g_qnet_max     =   0.0000000000000E+00
(PID.TID 0000.0001) %MON g__extforcing_g_qnet_min     =   0.0000000000000E+00
(PID.TID 0000.0001) %MON g__extforcing_g_qnet_mean    =   0.0000000000000E+00
(PID.TID 0000.0001) %MON g__extforcing_g_qnet_sd      =   0.0000000000000E+00
(PID.TID 0000.0001) %MON g__extforcing_g_qnet_del2    =   0.0000000000000E+00
(PID.TID 0000.0001) %MON g__extforcing_g_empmr_max    =   0.0000000000000E+00
(PID.TID 0000.0001) %MON g__extforcing_g_empmr_min    =   0.0000000000000E+00
(PID.TID 0000.0001) %MON g__extforcing_g_empmr_mean   =   0.0000000000000E+00
(PID.TID 0000.0001) %MON g__extforcing_g_empmr_sd     =   0.0000000000000E+00
(PID.TID 0000.0001) %MON g__extforcing_g_empmr_del2   =   0.0000000000000E+00
(PID.TID 0000.0001) %MON g__extforcing_g_fu_max       =   0.0000000000000E+00
(PID.TID 0000.0001) %MON g__extforcing_g_fu_min       =   0.0000000000000E+00
(PID.TID 0000.0001) %MON g__extforcing_g_fu_mean      =   0.0000000000000E+00
(PID.TID 0000.0001) %MON g__extforcing_g_fu_sd        =   0.0000000000000E+00
(PID.TID 0000.0001) %MON g__extforcing_g_fu_del2      =   0.0000000000000E+00
(PID.TID 0000.0001) %MON g__extforcing_g_fv_max       =   0.0000000000000E+00
(PID.TID 0000.0001) %MON g__extforcing_g_fv_min       =   0.0000000000000E+00
(PID.TID 0000.0001) %MON g__extforcing_g_fv_mean      =   0.0000000000000E+00
(PID.TID 0000.0001) %MON g__extforcing_g_fv_sd        =   0.0000000000000E+00
(PID.TID 0000.0001) %MON g__extforcing_g_fv_del2      =   0.0000000000000E+00
(PID.TID 0000.0001) %MON g__g_vcfl_g_uvel_max         =   6.1815830228816E-05
(PID.TID 0000.0001) %MON g__g_vcfl_g_vvel_max         =   3.2661110424757E-05
(PID.TID 0000.0001) %MON g__g_vcfl_g_wvel_max         =   5.4375248242899E-05
(PID.TID 0000.0001) %MON g__g_vcfl_g_W_hf_max         =   1.1190063756486E-04
(PID.TID 0000.0001) // =======================================================
(PID.TID 0000.0001) // End MONITOR dynamic field statistics
(PID.TID 0000.0001) // =======================================================
 cg2d: Sum(rhs),rhsMax =   5.28930558160992E-12  1.28482058142971E-02
 cg2d: Sum(rhs),rhsMax =   3.19839987827919E-12  8.02911791318482E+00
(PID.TID 0000.0001) // =======================================================
(PID.TID 0000.0001) // Begin MONITOR dynamic field statistics
(PID.TID 0000.0001) // =======================================================
(PID.TID 0000.0001) %MON g__time_tsnumber             =                    73
(PID.TID 0000.0001) %MON g__time_secondsf             =   3.1536000000000E+06
(PID.TID 0000.0001) %MON g__dynstat_g_eta_max         =   3.8894998079970E-03
(PID.TID 0000.0001) %MON g__dynstat_g_eta_min         =  -1.9258228283224E-05
(PID.TID 0000.0001) %MON g__dynstat_g_eta_mean        =  -4.3701226396609E-18
(PID.TID 0000.0001) %MON g__dynstat_g_eta_sd          =   4.9347404626939E-05
(PID.TID 0000.0001) %MON g__dynstat_g_eta_del2        =   1.7176629763428E-06
(PID.TID 0000.0001) %MON g__dynstat_g_uvel_max        =   5.1550922198373E-05
(PID.TID 0000.0001) %MON g__dynstat_g_uvel_min        =  -1.5452931023366E-04
(PID.TID 0000.0001) %MON g__dynstat_g_uvel_mean       =   2.3246220159004E-08
(PID.TID 0000.0001) %MON g__dynstat_g_uvel_sd         =   4.3319536780992E-07
(PID.TID 0000.0001) %MON g__dynstat_g_uvel_del2       =   4.3632860389771E-08
(PID.TID 0000.0001) %MON g__dynstat_g_vvel_max        =   3.3717155363488E-04
(PID.TID 0000.0001) %MON g__dynstat_g_vvel_min        =  -7.1312802162097E-05
(PID.TID 0000.0001) %MON g__dynstat_g_vvel_mean       =   6.9511362275310E-09
(PID.TID 0000.0001) %MON g__dynstat_g_vvel_sd         =   8.3325540305215E-07
(PID.TID 0000.0001) %MON g__dynstat_g_vvel_del2       =   5.4278132076336E-08
(PID.TID 0000.0001) %MON g__dynstat_g_wvel_max        =   6.8199235269232E-08
(PID.TID 0000.0001) %MON g__dynstat_g_wvel_min        =  -6.0285141368953E-08
(PID.TID 0000.0001) %MON g__dynstat_g_wvel_mean       =   1.1592532778950E-27
(PID.TID 0000.0001) %MON g__dynstat_g_wvel_sd         =   4.1220357613198E-10
(PID.TID 0000.0001) %MON g__dynstat_g_wvel_del2       =   8.7066893440448E-11
(PID.TID 0000.0001) %MON g__dynstat_g_theta_max       =   6.4555645607301E-01
(PID.TID 0000.0001) %MON g__dynstat_g_theta_min       =  -3.7794237800193E-04
(PID.TID 0000.0001) %MON g__dynstat_g_theta_mean      =   2.8622564245078E-06
(PID.TID 0000.0001) %MON g__dynstat_g_theta_sd        =   1.0339451853438E-03
(PID.TID 0000.0001) %MON g__dynstat_g_theta_del2      =   2.8803122083100E-05
(PID.TID 0000.0001) %MON g__dynstat_g_salt_max        =   8.4022543672935E-03
(PID.TID 0000.0001) %MON g__dynstat_g_salt_min        =  -7.1374203098096E-03
(PID.TID 0000.0001) %MON g__dynstat_g_salt_mean       =   2.4934516421879E-09
(PID.TID 0000.0001) %MON g__dynstat_g_salt_sd         =   1.6003333313398E-05
(PID.TID 0000.0001) %MON g__dynstat_g_salt_del2       =   7.9792194557128E-07
(PID.TID 0000.0001) %MON g__dynstat_g_sst_max         =   6.4555645607301E-01
(PID.TID 0000.0001) %MON g__dynstat_g_sst_min         =  -6.9366638253914E-05
(PID.TID 0000.0001) %MON g__dynstat_g_sst_mean        =   1.2264089682884E-04
(PID.TID 0000.0001) %MON g__dynstat_g_sst_sd          =   8.1798858588984E-03
(PID.TID 0000.0001) %MON g__dynstat_g_sst_del2        =   2.5694799733600E-04
(PID.TID 0000.0001) %MON g__dynstat_g_sss_max         =   8.4022543672935E-03
(PID.TID 0000.0001) %MON g__dynstat_g_sss_min         =  -7.1374203098096E-03
(PID.TID 0000.0001) %MON g__dynstat_g_sss_mean        =   5.1457908283297E-07
(PID.TID 0000.0001) %MON g__dynstat_g_sss_sd          =   1.3939586863175E-04
(PID.TID 0000.0001) %MON g__dynstat_g_sss_del2        =   8.7850634448189E-06
(PID.TID 0000.0001) %MON g__extforcing_g_qnet_max     =   0.0000000000000E+00
(PID.TID 0000.0001) %MON g__extforcing_g_qnet_min     =   0.0000000000000E+00
(PID.TID 0000.0001) %MON g__extforcing_g_qnet_mean    =   0.0000000000000E+00
(PID.TID 0000.0001) %MON g__extforcing_g_qnet_sd      =   0.0000000000000E+00
(PID.TID 0000.0001) %MON g__extforcing_g_qnet_del2    =   0.0000000000000E+00
(PID.TID 0000.0001) %MON g__extforcing_g_empmr_max    =   0.0000000000000E+00
(PID.TID 0000.0001) %MON g__extforcing_g_empmr_min    =   0.0000000000000E+00
(PID.TID 0000.0001) %MON g__extforcing_g_empmr_mean   =   0.0000000000000E+00
(PID.TID 0000.0001) %MON g__extforcing_g_empmr_sd     =   0.0000000000000E+00
(PID.TID 0000.0001) %MON g__extforcing_g_empmr_del2   =   0.0000000000000E+00
(PID.TID 0000.0001) %MON g__extforcing_g_fu_max       =   0.0000000000000E+00
(PID.TID 0000.0001) %MON g__extforcing_g_fu_min       =   0.0000000000000E+00
(PID.TID 0000.0001) %MON g__extforcing_g_fu_mean      =   0.0000000000000E+00
(PID.TID 0000.0001) %MON g__extforcing_g_fu_sd        =   0.0000000000000E+00
(PID.TID 0000.0001) %MON g__extforcing_g_fu_del2      =   0.0000000000000E+00
(PID.TID 0000.0001) %MON g__extforcing_g_fv_max       =   0.0000000000000E+00
(PID.TID 0000.0001) %MON g__extforcing_g_fv_min       =   0.0000000000000E+00
(PID.TID 0000.0001) %MON g__extforcing_g_fv_mean      =   0.0000000000000E+00
(PID.TID 0000.0001) %MON g__extforcing_g_fv_sd        =   0.0000000000000E+00
(PID.TID 0000.0001) %MON g__extforcing_g_fv_del2      =   0.0000000000000E+00
(PID.TID 0000.0001) %MON g__g_vcfl_g_uvel_max         =   5.4460264533518E-05
(PID.TID 0000.0001) %MON g__g_vcfl_g_vvel_max         =   3.2753512644834E-05
(PID.TID 0000.0001) %MON g__g_vcfl_g_wvel_max         =   6.2080022719238E-05
(PID.TID 0000.0001) %MON g__g_vcfl_g_W_hf_max         =   1.0886873706124E-04
(PID.TID 0000.0001) // =======================================================
(PID.TID 0000.0001) // End MONITOR dynamic field statistics
(PID.TID 0000.0001) // =======================================================
 cg2d: Sum(rhs),rhsMax =   5.41954911117420E-12  1.26948815048229E-02
 cg2d: Sum(rhs),rhsMax =   3.63800656266733E-12  8.49105103448681E+00
(PID.TID 0000.0001) // =======================================================
(PID.TID 0000.0001) // Begin MONITOR dynamic field statistics
(PID.TID 0000.0001) // =======================================================
(PID.TID 0000.0001) %MON g__time_tsnumber             =                    74
(PID.TID 0000.0001) %MON g__time_secondsf             =   3.1968000000000E+06
(PID.TID 0000.0001) %MON g__dynstat_g_eta_max         =   3.8430918078319E-03
(PID.TID 0000.0001) %MON g__dynstat_g_eta_min         =  -2.0162302456676E-05
(PID.TID 0000.0001) %MON g__dynstat_g_eta_mean        =  -4.3994116526135E-18
(PID.TID 0000.0001) %MON g__dynstat_g_eta_sd          =   4.8760677719484E-05
(PID.TID 0000.0001) %MON g__dynstat_g_eta_del2        =   1.6991653879357E-06
(PID.TID 0000.0001) %MON g__dynstat_g_uvel_max        =   4.8027113634355E-05
(PID.TID 0000.0001) %MON g__dynstat_g_uvel_min        =  -1.3352235094412E-04
(PID.TID 0000.0001) %MON g__dynstat_g_uvel_mean       =   2.2988376074370E-08
(PID.TID 0000.0001) %MON g__dynstat_g_uvel_sd         =   3.8787756005533E-07
(PID.TID 0000.0001) %MON g__dynstat_g_uvel_del2       =   4.2478966603919E-08
(PID.TID 0000.0001) %MON g__dynstat_g_vvel_max        =   3.3896040463106E-04
(PID.TID 0000.0001) %MON g__dynstat_g_vvel_min        =  -7.1163050905349E-05
(PID.TID 0000.0001) %MON g__dynstat_g_vvel_mean       =   6.5765370459687E-09
(PID.TID 0000.0001) %MON g__dynstat_g_vvel_sd         =   8.3818753673650E-07
(PID.TID 0000.0001) %MON g__dynstat_g_vvel_del2       =   5.4806834544446E-08
(PID.TID 0000.0001) %MON g__dynstat_g_wvel_max        =   6.8806476586433E-08
(PID.TID 0000.0001) %MON g__dynstat_g_wvel_min        =  -5.4127047571844E-08
(PID.TID 0000.0001) %MON g__dynstat_g_wvel_mean       =   1.4272578661803E-27
(PID.TID 0000.0001) %MON g__dynstat_g_wvel_sd         =   4.0538711507097E-10
(PID.TID 0000.0001) %MON g__dynstat_g_wvel_del2       =   8.7337712767360E-11
(PID.TID 0000.0001) %MON g__dynstat_g_theta_max       =   6.3712125531253E-01
(PID.TID 0000.0001) %MON g__dynstat_g_theta_min       =  -3.8519622884859E-04
(PID.TID 0000.0001) %MON g__dynstat_g_theta_mean      =   2.8398387776244E-06
(PID.TID 0000.0001) %MON g__dynstat_g_theta_sd        =   1.0218870075866E-03
(PID.TID 0000.0001) %MON g__dynstat_g_theta_del2      =   2.8469295672799E-05
(PID.TID 0000.0001) %MON g__dynstat_g_salt_max        =   8.4023329305140E-03
(PID.TID 0000.0001) %MON g__dynstat_g_salt_min        =  -7.1372409160048E-03
(PID.TID 0000.0001) %MON g__dynstat_g_salt_mean       =   2.6367123406568E-09
(PID.TID 0000.0001) %MON g__dynstat_g_salt_sd         =   1.6005559419984E-05
(PID.TID 0000.0001) %MON g__dynstat_g_salt_del2       =   7.9871549795525E-07
(PID.TID 0000.0001) %MON g__dynstat_g_sst_max         =   6.3712125531253E-01
(PID.TID 0000.0001) %MON g__dynstat_g_sst_min         =  -7.3470006719585E-05
(PID.TID 0000.0001) %MON g__dynstat_g_sst_mean        =   1.2119932299015E-04
(PID.TID 0000.0001) %MON g__dynstat_g_sst_sd          =   8.0738716659587E-03
(PID.TID 0000.0001) %MON g__dynstat_g_sst_del2        =   2.5347730890330E-04
(PID.TID 0000.0001) %MON g__dynstat_g_sss_max         =   8.4023329305140E-03
(PID.TID 0000.0001) %MON g__dynstat_g_sss_min         =  -7.1372409160048E-03
(PID.TID 0000.0001) %MON g__dynstat_g_sss_mean        =   5.1826134161626E-07
(PID.TID 0000.0001) %MON g__dynstat_g_sss_sd          =   1.3940300883501E-04
(PID.TID 0000.0001) %MON g__dynstat_g_sss_del2        =   8.7854650448188E-06
(PID.TID 0000.0001) %MON g__extforcing_g_qnet_max     =   0.0000000000000E+00
(PID.TID 0000.0001) %MON g__extforcing_g_qnet_min     =   0.0000000000000E+00
(PID.TID 0000.0001) %MON g__extforcing_g_qnet_mean    =   0.0000000000000E+00
(PID.TID 0000.0001) %MON g__extforcing_g_qnet_sd      =   0.0000000000000E+00
(PID.TID 0000.0001) %MON g__extforcing_g_qnet_del2    =   0.0000000000000E+00
(PID.TID 0000.0001) %MON g__extforcing_g_empmr_max    =   0.0000000000000E+00
(PID.TID 0000.0001) %MON g__extforcing_g_empmr_min    =   0.0000000000000E+00
(PID.TID 0000.0001) %MON g__extforcing_g_empmr_mean   =   0.0000000000000E+00
(PID.TID 0000.0001) %MON g__extforcing_g_empmr_sd     =   0.0000000000000E+00
(PID.TID 0000.0001) %MON g__extforcing_g_empmr_del2   =   0.0000000000000E+00
(PID.TID 0000.0001) %MON g__extforcing_g_fu_max       =   0.0000000000000E+00
(PID.TID 0000.0001) %MON g__extforcing_g_fu_min       =   0.0000000000000E+00
(PID.TID 0000.0001) %MON g__extforcing_g_fu_mean      =   0.0000000000000E+00
(PID.TID 0000.0001) %MON g__extforcing_g_fu_sd        =   0.0000000000000E+00
(PID.TID 0000.0001) %MON g__extforcing_g_fu_del2      =   0.0000000000000E+00
(PID.TID 0000.0001) %MON g__extforcing_g_fv_max       =   0.0000000000000E+00
(PID.TID 0000.0001) %MON g__extforcing_g_fv_min       =   0.0000000000000E+00
(PID.TID 0000.0001) %MON g__extforcing_g_fv_mean      =   0.0000000000000E+00
(PID.TID 0000.0001) %MON g__extforcing_g_fv_sd        =   0.0000000000000E+00
(PID.TID 0000.0001) %MON g__extforcing_g_fv_del2      =   0.0000000000000E+00
(PID.TID 0000.0001) %MON g__g_vcfl_g_uvel_max         =   4.7056849878891E-05
(PID.TID 0000.0001) %MON g__g_vcfl_g_vvel_max         =   3.2927285174253E-05
(PID.TID 0000.0001) %MON g__g_vcfl_g_wvel_max         =   6.6827520237835E-05
(PID.TID 0000.0001) %MON g__g_vcfl_g_W_hf_max         =   1.0911622034171E-04
(PID.TID 0000.0001) // =======================================================
(PID.TID 0000.0001) // End MONITOR dynamic field statistics
(PID.TID 0000.0001) // =======================================================
 cg2d: Sum(rhs),rhsMax =   5.52198609864749E-12  1.25391314636940E-02
 cg2d: Sum(rhs),rhsMax =   2.59998272911233E-12  8.90375443856863E+00
(PID.TID 0000.0001) // =======================================================
(PID.TID 0000.0001) // Begin MONITOR dynamic field statistics
(PID.TID 0000.0001) // =======================================================
(PID.TID 0000.0001) %MON g__time_tsnumber             =                    75
(PID.TID 0000.0001) %MON g__time_secondsf             =   3.2400000000000E+06
(PID.TID 0000.0001) %MON g__dynstat_g_eta_max         =   3.7955464137748E-03
(PID.TID 0000.0001) %MON g__dynstat_g_eta_min         =  -2.1796383589784E-05
(PID.TID 0000.0001) %MON g__dynstat_g_eta_mean        =  -4.3920036254427E-18
(PID.TID 0000.0001) %MON g__dynstat_g_eta_sd          =   4.8156441847915E-05
(PID.TID 0000.0001) %MON g__dynstat_g_eta_del2        =   1.6801129104632E-06
(PID.TID 0000.0001) %MON g__dynstat_g_uvel_max        =   4.4073880934912E-05
(PID.TID 0000.0001) %MON g__dynstat_g_uvel_min        =  -1.1284373144472E-04
(PID.TID 0000.0001) %MON g__dynstat_g_uvel_mean       =   2.2278138729692E-08
(PID.TID 0000.0001) %MON g__dynstat_g_uvel_sd         =   3.4456642401111E-07
(PID.TID 0000.0001) %MON g__dynstat_g_uvel_del2       =   4.1612998366558E-08
(PID.TID 0000.0001) %MON g__dynstat_g_vvel_max        =   3.4132837238162E-04
(PID.TID 0000.0001) %MON g__dynstat_g_vvel_min        =  -7.1360985833371E-05
(PID.TID 0000.0001) %MON g__dynstat_g_vvel_mean       =   6.4528643617238E-09
(PID.TID 0000.0001) %MON g__dynstat_g_vvel_sd         =   8.4357334000377E-07
(PID.TID 0000.0001) %MON g__dynstat_g_vvel_del2       =   5.5205782488324E-08
(PID.TID 0000.0001) %MON g__dynstat_g_wvel_max        =   7.0558258489619E-08
(PID.TID 0000.0001) %MON g__dynstat_g_wvel_min        =  -4.6399882755593E-08
(PID.TID 0000.0001) %MON g__dynstat_g_wvel_mean       =   5.5473362380966E-29
(PID.TID 0000.0001) %MON g__dynstat_g_wvel_sd         =   4.0214738478420E-10
(PID.TID 0000.0001) %MON g__dynstat_g_wvel_del2       =   8.7567736069741E-11
(PID.TID 0000.0001) %MON g__dynstat_g_theta_max       =   6.2888930120897E-01
(PID.TID 0000.0001) %MON g__dynstat_g_theta_min       =  -3.9278427604541E-04
(PID.TID 0000.0001) %MON g__dynstat_g_theta_mean      =   2.8179457997969E-06
(PID.TID 0000.0001) %MON g__dynstat_g_theta_sd        =   1.0101945839343E-03
(PID.TID 0000.0001) %MON g__dynstat_g_theta_del2      =   2.8147471678369E-05
(PID.TID 0000.0001) %MON g__dynstat_g_salt_max        =   8.4043552770294E-03
(PID.TID 0000.0001) %MON g__dynstat_g_salt_min        =  -7.1367867901974E-03
(PID.TID 0000.0001) %MON g__dynstat_g_salt_mean       =   2.8519135437577E-09
(PID.TID 0000.0001) %MON g__dynstat_g_salt_sd         =   1.6009781843705E-05
(PID.TID 0000.0001) %MON g__dynstat_g_salt_del2       =   7.9947752714722E-07
(PID.TID 0000.0001) %MON g__dynstat_g_sst_max         =   6.2888930120897E-01
(PID.TID 0000.0001) %MON g__dynstat_g_sst_min         =  -7.7635803711189E-05
(PID.TID 0000.0001) %MON g__dynstat_g_sst_mean        =   1.1978386305171E-04
(PID.TID 0000.0001) %MON g__dynstat_g_sst_sd          =   7.9704046193522E-03
(PID.TID 0000.0001) %MON g__dynstat_g_sst_del2        =   2.5009512938889E-04
(PID.TID 0000.0001) %MON g__dynstat_g_sss_max         =   8.4043552770294E-03
(PID.TID 0000.0001) %MON g__dynstat_g_sss_min         =  -7.1367867901974E-03
(PID.TID 0000.0001) %MON g__dynstat_g_sss_mean        =   5.2293332675845E-07
(PID.TID 0000.0001) %MON g__dynstat_g_sss_sd          =   1.3942653634556E-04
(PID.TID 0000.0001) %MON g__dynstat_g_sss_del2        =   8.7868429670714E-06
(PID.TID 0000.0001) %MON g__extforcing_g_qnet_max     =   0.0000000000000E+00
(PID.TID 0000.0001) %MON g__extforcing_g_qnet_min     =   0.0000000000000E+00
(PID.TID 0000.0001) %MON g__extforcing_g_qnet_mean    =   0.0000000000000E+00
(PID.TID 0000.0001) %MON g__extforcing_g_qnet_sd      =   0.0000000000000E+00
(PID.TID 0000.0001) %MON g__extforcing_g_qnet_del2    =   0.0000000000000E+00
(PID.TID 0000.0001) %MON g__extforcing_g_empmr_max    =   0.0000000000000E+00
(PID.TID 0000.0001) %MON g__extforcing_g_empmr_min    =   0.0000000000000E+00
(PID.TID 0000.0001) %MON g__extforcing_g_empmr_mean   =   0.0000000000000E+00
(PID.TID 0000.0001) %MON g__extforcing_g_empmr_sd     =   0.0000000000000E+00
(PID.TID 0000.0001) %MON g__extforcing_g_empmr_del2   =   0.0000000000000E+00
(PID.TID 0000.0001) %MON g__extforcing_g_fu_max       =   0.0000000000000E+00
(PID.TID 0000.0001) %MON g__extforcing_g_fu_min       =   0.0000000000000E+00
(PID.TID 0000.0001) %MON g__extforcing_g_fu_mean      =   0.0000000000000E+00
(PID.TID 0000.0001) %MON g__extforcing_g_fu_sd        =   0.0000000000000E+00
(PID.TID 0000.0001) %MON g__extforcing_g_fu_del2      =   0.0000000000000E+00
(PID.TID 0000.0001) %MON g__extforcing_g_fv_max       =   0.0000000000000E+00
(PID.TID 0000.0001) %MON g__extforcing_g_fv_min       =   0.0000000000000E+00
(PID.TID 0000.0001) %MON g__extforcing_g_fv_mean      =   0.0000000000000E+00
(PID.TID 0000.0001) %MON g__extforcing_g_fv_sd        =   0.0000000000000E+00
(PID.TID 0000.0001) %MON g__extforcing_g_fv_del2      =   0.0000000000000E+00
(PID.TID 0000.0001) %MON g__g_vcfl_g_uvel_max         =   3.9769150953538E-05
(PID.TID 0000.0001) %MON g__g_vcfl_g_vvel_max         =   3.3157314252401E-05
(PID.TID 0000.0001) %MON g__g_vcfl_g_wvel_max         =   6.8465367442231E-05
(PID.TID 0000.0001) %MON g__g_vcfl_g_W_hf_max         =   1.1099702860261E-04
(PID.TID 0000.0001) // =======================================================
(PID.TID 0000.0001) // End MONITOR dynamic field statistics
(PID.TID 0000.0001) // =======================================================
 cg2d: Sum(rhs),rhsMax =   5.58037608772928E-12  1.23875648625336E-02
 cg2d: Sum(rhs),rhsMax =   2.51632048531292E-12  9.21995752446139E+00
(PID.TID 0000.0001) // =======================================================
(PID.TID 0000.0001) // Begin MONITOR dynamic field statistics
(PID.TID 0000.0001) // =======================================================
(PID.TID 0000.0001) %MON g__time_tsnumber             =                    76
(PID.TID 0000.0001) %MON g__time_secondsf             =   3.2832000000000E+06
(PID.TID 0000.0001) %MON g__dynstat_g_eta_max         =   3.7489638843202E-03
(PID.TID 0000.0001) %MON g__dynstat_g_eta_min         =  -2.3971097685673E-05
(PID.TID 0000.0001) %MON g__dynstat_g_eta_mean        =  -4.3583801972532E-18
(PID.TID 0000.0001) %MON g__dynstat_g_eta_sd          =   4.7561807836384E-05
(PID.TID 0000.0001) %MON g__dynstat_g_eta_del2        =   1.6612407598062E-06
(PID.TID 0000.0001) %MON g__dynstat_g_uvel_max        =   3.9750627214097E-05
(PID.TID 0000.0001) %MON g__dynstat_g_uvel_min        =  -9.2837353011572E-05
(PID.TID 0000.0001) %MON g__dynstat_g_uvel_mean       =   2.1109092150538E-08
(PID.TID 0000.0001) %MON g__dynstat_g_uvel_sd         =   3.0626758182552E-07
(PID.TID 0000.0001) %MON g__dynstat_g_uvel_del2       =   4.1192053371366E-08
(PID.TID 0000.0001) %MON g__dynstat_g_vvel_max        =   3.4403627566764E-04
(PID.TID 0000.0001) %MON g__dynstat_g_vvel_min        =  -7.1879333950062E-05
(PID.TID 0000.0001) %MON g__dynstat_g_vvel_mean       =   6.5244279893249E-09
(PID.TID 0000.0001) %MON g__dynstat_g_vvel_sd         =   8.4883070919132E-07
(PID.TID 0000.0001) %MON g__dynstat_g_vvel_del2       =   5.5505577807581E-08
(PID.TID 0000.0001) %MON g__dynstat_g_wvel_max        =   7.3270255820282E-08
(PID.TID 0000.0001) %MON g__dynstat_g_wvel_min        =  -3.8818774545435E-08
(PID.TID 0000.0001) %MON g__dynstat_g_wvel_mean       =   1.6488013260361E-27
(PID.TID 0000.0001) %MON g__dynstat_g_wvel_sd         =   4.0176269834112E-10
(PID.TID 0000.0001) %MON g__dynstat_g_wvel_del2       =   8.7617506383676E-11
(PID.TID 0000.0001) %MON g__dynstat_g_theta_max       =   6.2097197516448E-01
(PID.TID 0000.0001) %MON g__dynstat_g_theta_min       =  -4.0065033055738E-04
(PID.TID 0000.0001) %MON g__dynstat_g_theta_mean      =   2.7973910180630E-06
(PID.TID 0000.0001) %MON g__dynstat_g_theta_sd        =   9.9909650911135E-04
(PID.TID 0000.0001) %MON g__dynstat_g_theta_del2      =   2.7844059621772E-05
(PID.TID 0000.0001) %MON g__dynstat_g_salt_max        =   8.4103943560029E-03
(PID.TID 0000.0001) %MON g__dynstat_g_salt_min        =  -7.1382618105350E-03
(PID.TID 0000.0001) %MON g__dynstat_g_salt_mean       =   3.1254640041815E-09
(PID.TID 0000.0001) %MON g__dynstat_g_salt_sd         =   1.6020369525374E-05
(PID.TID 0000.0001) %MON g__dynstat_g_salt_del2       =   8.0066983977018E-07
(PID.TID 0000.0001) %MON g__dynstat_g_sst_max         =   6.2097197516448E-01
(PID.TID 0000.0001) %MON g__dynstat_g_sst_min         =  -8.1765567111516E-05
(PID.TID 0000.0001) %MON g__dynstat_g_sst_mean        =   1.1841492166926E-04
(PID.TID 0000.0001) %MON g__dynstat_g_sst_sd          =   7.8709075581417E-03
(PID.TID 0000.0001) %MON g__dynstat_g_sst_del2        =   2.4683906014288E-04
(PID.TID 0000.0001) %MON g__dynstat_g_sss_max         =   8.4103943560029E-03
(PID.TID 0000.0001) %MON g__dynstat_g_sss_min         =  -7.1382618105350E-03
(PID.TID 0000.0001) %MON g__dynstat_g_sss_mean        =   5.2827408166499E-07
(PID.TID 0000.0001) %MON g__dynstat_g_sss_sd          =   1.3950472195179E-04
(PID.TID 0000.0001) %MON g__dynstat_g_sss_del2        =   8.7916150433279E-06
(PID.TID 0000.0001) %MON g__extforcing_g_qnet_max     =   0.0000000000000E+00
(PID.TID 0000.0001) %MON g__extforcing_g_qnet_min     =   0.0000000000000E+00
(PID.TID 0000.0001) %MON g__extforcing_g_qnet_mean    =   0.0000000000000E+00
(PID.TID 0000.0001) %MON g__extforcing_g_qnet_sd      =   0.0000000000000E+00
(PID.TID 0000.0001) %MON g__extforcing_g_qnet_del2    =   0.0000000000000E+00
(PID.TID 0000.0001) %MON g__extforcing_g_empmr_max    =   0.0000000000000E+00
(PID.TID 0000.0001) %MON g__extforcing_g_empmr_min    =   0.0000000000000E+00
(PID.TID 0000.0001) %MON g__extforcing_g_empmr_mean   =   0.0000000000000E+00
(PID.TID 0000.0001) %MON g__extforcing_g_empmr_sd     =   0.0000000000000E+00
(PID.TID 0000.0001) %MON g__extforcing_g_empmr_del2   =   0.0000000000000E+00
(PID.TID 0000.0001) %MON g__extforcing_g_fu_max       =   0.0000000000000E+00
(PID.TID 0000.0001) %MON g__extforcing_g_fu_min       =   0.0000000000000E+00
(PID.TID 0000.0001) %MON g__extforcing_g_fu_mean      =   0.0000000000000E+00
(PID.TID 0000.0001) %MON g__extforcing_g_fu_sd        =   0.0000000000000E+00
(PID.TID 0000.0001) %MON g__extforcing_g_fu_del2      =   0.0000000000000E+00
(PID.TID 0000.0001) %MON g__extforcing_g_fv_max       =   0.0000000000000E+00
(PID.TID 0000.0001) %MON g__extforcing_g_fv_min       =   0.0000000000000E+00
(PID.TID 0000.0001) %MON g__extforcing_g_fv_mean      =   0.0000000000000E+00
(PID.TID 0000.0001) %MON g__extforcing_g_fv_sd        =   0.0000000000000E+00
(PID.TID 0000.0001) %MON g__extforcing_g_fv_del2      =   0.0000000000000E+00
(PID.TID 0000.0001) %MON g__g_vcfl_g_uvel_max         =   3.2718367770857E-05
(PID.TID 0000.0001) %MON g__g_vcfl_g_vvel_max         =   3.3420365341864E-05
(PID.TID 0000.0001) %MON g__g_vcfl_g_wvel_max         =   6.7078842414511E-05
(PID.TID 0000.0001) %MON g__g_vcfl_g_W_hf_max         =   1.1431499622992E-04
(PID.TID 0000.0001) // =======================================================
(PID.TID 0000.0001) // End MONITOR dynamic field statistics
(PID.TID 0000.0001) // =======================================================
 cg2d: Sum(rhs),rhsMax =   5.60197000136769E-12  1.22460504384038E-02
 cg2d: Sum(rhs),rhsMax =   2.81209777686087E-12  9.43408891658781E+00
(PID.TID 0000.0001) // =======================================================
(PID.TID 0000.0001) // Begin MONITOR dynamic field statistics
(PID.TID 0000.0001) // =======================================================
(PID.TID 0000.0001) %MON g__time_tsnumber             =                    77
(PID.TID 0000.0001) %MON g__time_secondsf             =   3.3264000000000E+06
(PID.TID 0000.0001) %MON g__dynstat_g_eta_max         =   3.7052390826251E-03
(PID.TID 0000.0001) %MON g__dynstat_g_eta_min         =  -2.6474390465581E-05
(PID.TID 0000.0001) %MON g__dynstat_g_eta_mean        =  -4.2974652681884E-18
(PID.TID 0000.0001) %MON g__dynstat_g_eta_sd          =   4.7001564136577E-05
(PID.TID 0000.0001) %MON g__dynstat_g_eta_del2        =   1.6441206618407E-06
(PID.TID 0000.0001) %MON g__dynstat_g_uvel_max        =   3.5128342552206E-05
(PID.TID 0000.0001) %MON g__dynstat_g_uvel_min        =  -7.3745764927851E-05
(PID.TID 0000.0001) %MON g__dynstat_g_uvel_mean       =   1.9509017689561E-08
(PID.TID 0000.0001) %MON g__dynstat_g_uvel_sd         =   2.7628320063975E-07
(PID.TID 0000.0001) %MON g__dynstat_g_uvel_del2       =   4.0986894508566E-08
(PID.TID 0000.0001) %MON g__dynstat_g_vvel_max        =   3.4687679385730E-04
(PID.TID 0000.0001) %MON g__dynstat_g_vvel_min        =  -7.2670098682599E-05
(PID.TID 0000.0001) %MON g__dynstat_g_vvel_mean       =   6.7264798071105E-09
(PID.TID 0000.0001) %MON g__dynstat_g_vvel_sd         =   8.5353227962702E-07
(PID.TID 0000.0001) %MON g__dynstat_g_vvel_del2       =   5.5769087908809E-08
(PID.TID 0000.0001) %MON g__dynstat_g_wvel_max        =   7.6696970076200E-08
(PID.TID 0000.0001) %MON g__dynstat_g_wvel_min        =  -3.6437334745986E-08
(PID.TID 0000.0001) %MON g__dynstat_g_wvel_mean       =  -6.4380599432042E-28
(PID.TID 0000.0001) %MON g__dynstat_g_wvel_sd         =   4.0378778501084E-10
(PID.TID 0000.0001) %MON g__dynstat_g_wvel_del2       =   8.7520730552028E-11
(PID.TID 0000.0001) %MON g__dynstat_g_theta_max       =   6.1345451859577E-01
(PID.TID 0000.0001) %MON g__dynstat_g_theta_min       =  -4.0872502505738E-04
(PID.TID 0000.0001) %MON g__dynstat_g_theta_mean      =   2.7788472079170E-06
(PID.TID 0000.0001) %MON g__dynstat_g_theta_sd        =   9.8877112068962E-04
(PID.TID 0000.0001) %MON g__dynstat_g_theta_del2      =   2.7564729866597E-05
(PID.TID 0000.0001) %MON g__dynstat_g_salt_max        =   8.4221310852410E-03
(PID.TID 0000.0001) %MON g__dynstat_g_salt_min        =  -7.1435101274352E-03
(PID.TID 0000.0001) %MON g__dynstat_g_salt_mean       =   3.4399562064578E-09
(PID.TID 0000.0001) %MON g__dynstat_g_salt_sd         =   1.6040915238630E-05
(PID.TID 0000.0001) %MON g__dynstat_g_salt_del2       =   8.0239804796411E-07
(PID.TID 0000.0001) %MON g__dynstat_g_sst_max         =   6.1345451859577E-01
(PID.TID 0000.0001) %MON g__dynstat_g_sst_min         =  -8.5783390418674E-05
(PID.TID 0000.0001) %MON g__dynstat_g_sst_mean        =   1.1711284122284E-04
(PID.TID 0000.0001) %MON g__dynstat_g_sst_sd          =   7.7764704168644E-03
(PID.TID 0000.0001) %MON g__dynstat_g_sst_del2        =   2.4374412827710E-04
(PID.TID 0000.0001) %MON g__dynstat_g_sss_max         =   8.4221310852410E-03
(PID.TID 0000.0001) %MON g__dynstat_g_sss_min         =  -7.1435101274352E-03
(PID.TID 0000.0001) %MON g__dynstat_g_sss_mean        =   5.3447489539664E-07
(PID.TID 0000.0001) %MON g__dynstat_g_sss_sd          =   1.3966914146627E-04
(PID.TID 0000.0001) %MON g__dynstat_g_sss_del2        =   8.8017713228250E-06
(PID.TID 0000.0001) %MON g__extforcing_g_qnet_max     =   0.0000000000000E+00
(PID.TID 0000.0001) %MON g__extforcing_g_qnet_min     =   0.0000000000000E+00
(PID.TID 0000.0001) %MON g__extforcing_g_qnet_mean    =   0.0000000000000E+00
(PID.TID 0000.0001) %MON g__extforcing_g_qnet_sd      =   0.0000000000000E+00
(PID.TID 0000.0001) %MON g__extforcing_g_qnet_del2    =   0.0000000000000E+00
(PID.TID 0000.0001) %MON g__extforcing_g_empmr_max    =   0.0000000000000E+00
(PID.TID 0000.0001) %MON g__extforcing_g_empmr_min    =   0.0000000000000E+00
(PID.TID 0000.0001) %MON g__extforcing_g_empmr_mean   =   0.0000000000000E+00
(PID.TID 0000.0001) %MON g__extforcing_g_empmr_sd     =   0.0000000000000E+00
(PID.TID 0000.0001) %MON g__extforcing_g_empmr_del2   =   0.0000000000000E+00
(PID.TID 0000.0001) %MON g__extforcing_g_fu_max       =   0.0000000000000E+00
(PID.TID 0000.0001) %MON g__extforcing_g_fu_min       =   0.0000000000000E+00
(PID.TID 0000.0001) %MON g__extforcing_g_fu_mean      =   0.0000000000000E+00
(PID.TID 0000.0001) %MON g__extforcing_g_fu_sd        =   0.0000000000000E+00
(PID.TID 0000.0001) %MON g__extforcing_g_fu_del2      =   0.0000000000000E+00
(PID.TID 0000.0001) %MON g__extforcing_g_fv_max       =   0.0000000000000E+00
(PID.TID 0000.0001) %MON g__extforcing_g_fv_min       =   0.0000000000000E+00
(PID.TID 0000.0001) %MON g__extforcing_g_fv_mean      =   0.0000000000000E+00
(PID.TID 0000.0001) %MON g__extforcing_g_fv_sd        =   0.0000000000000E+00
(PID.TID 0000.0001) %MON g__extforcing_g_fv_del2      =   0.0000000000000E+00
(PID.TID 0000.0001) %MON g__g_vcfl_g_uvel_max         =   2.5989981189488E-05
(PID.TID 0000.0001) %MON g__g_vcfl_g_vvel_max         =   3.3696298905772E-05
(PID.TID 0000.0001) %MON g__g_vcfl_g_wvel_max         =   6.2963714441064E-05
(PID.TID 0000.0001) %MON g__g_vcfl_g_W_hf_max         =   1.1876546576267E-04
(PID.TID 0000.0001) // =======================================================
(PID.TID 0000.0001) // End MONITOR dynamic field statistics
(PID.TID 0000.0001) // =======================================================
 cg2d: Sum(rhs),rhsMax =   5.58255249764734E-12  1.21193747632866E-02
 cg2d: Sum(rhs),rhsMax =   1.78770193093314E-12  9.54305671450155E+00
(PID.TID 0000.0001) // =======================================================
(PID.TID 0000.0001) // Begin MONITOR dynamic field statistics
(PID.TID 0000.0001) // =======================================================
(PID.TID 0000.0001) %MON g__time_tsnumber             =                    78
(PID.TID 0000.0001) %MON g__time_secondsf             =   3.3696000000000E+06
(PID.TID 0000.0001) %MON g__dynstat_g_eta_max         =   3.6659439738176E-03
(PID.TID 0000.0001) %MON g__dynstat_g_eta_min         =  -2.9063484834524E-05
(PID.TID 0000.0001) %MON g__dynstat_g_eta_mean        =  -4.2344792618624E-18
(PID.TID 0000.0001) %MON g__dynstat_g_eta_sd          =   4.6496559843387E-05
(PID.TID 0000.0001) %MON g__dynstat_g_eta_del2        =   1.6292606512888E-06
(PID.TID 0000.0001) %MON g__dynstat_g_uvel_max        =   3.0289525762381E-05
(PID.TID 0000.0001) %MON g__dynstat_g_uvel_min        =  -6.5480354259055E-05
(PID.TID 0000.0001) %MON g__dynstat_g_uvel_mean       =   1.7534754823423E-08
(PID.TID 0000.0001) %MON g__dynstat_g_uvel_sd         =   2.5757979768550E-07
(PID.TID 0000.0001) %MON g__dynstat_g_uvel_del2       =   4.0936612436345E-08
(PID.TID 0000.0001) %MON g__dynstat_g_vvel_max        =   3.4968228631329E-04
(PID.TID 0000.0001) %MON g__dynstat_g_vvel_min        =  -7.3667300921985E-05
(PID.TID 0000.0001) %MON g__dynstat_g_vvel_mean       =   6.9888422868772E-09
(PID.TID 0000.0001) %MON g__dynstat_g_vvel_sd         =   8.5741901537002E-07
(PID.TID 0000.0001) %MON g__dynstat_g_vvel_del2       =   5.5912268464500E-08
(PID.TID 0000.0001) %MON g__dynstat_g_wvel_max        =   8.0549649028400E-08
(PID.TID 0000.0001) %MON g__dynstat_g_wvel_min        =  -3.3859078459933E-08
(PID.TID 0000.0001) %MON g__dynstat_g_wvel_mean       =  -1.8262460877216E-27
(PID.TID 0000.0001) %MON g__dynstat_g_wvel_sd         =   4.0802224421126E-10
(PID.TID 0000.0001) %MON g__dynstat_g_wvel_del2       =   8.7709746343880E-11
(PID.TID 0000.0001) %MON g__dynstat_g_theta_max       =   6.0639363160624E-01
(PID.TID 0000.0001) %MON g__dynstat_g_theta_min       =  -4.1693183015033E-04
(PID.TID 0000.0001) %MON g__dynstat_g_theta_mean      =   2.7628257164665E-06
(PID.TID 0000.0001) %MON g__dynstat_g_theta_sd        =   9.7934135623466E-04
(PID.TID 0000.0001) %MON g__dynstat_g_theta_del2      =   2.7313499261738E-05
(PID.TID 0000.0001) %MON g__dynstat_g_salt_max        =   8.4407766187116E-03
(PID.TID 0000.0001) %MON g__dynstat_g_salt_min        =  -7.1539416930653E-03
(PID.TID 0000.0001) %MON g__dynstat_g_salt_mean       =   3.7757628783651E-09
(PID.TID 0000.0001) %MON g__dynstat_g_salt_sd         =   1.6074095927146E-05
(PID.TID 0000.0001) %MON g__dynstat_g_salt_del2       =   8.0473937637218E-07
(PID.TID 0000.0001) %MON g__dynstat_g_sst_max         =   6.0639363160624E-01
(PID.TID 0000.0001) %MON g__dynstat_g_sst_min         =  -8.9639376314742E-05
(PID.TID 0000.0001) %MON g__dynstat_g_sst_mean        =   1.1589074342469E-04
(PID.TID 0000.0001) %MON g__dynstat_g_sst_sd          =   7.6878195503622E-03
(PID.TID 0000.0001) %MON g__dynstat_g_sst_del2        =   2.4083118810007E-04
(PID.TID 0000.0001) %MON g__dynstat_g_sss_max         =   8.4407766187116E-03
(PID.TID 0000.0001) %MON g__dynstat_g_sss_min         =  -7.1539416930653E-03
(PID.TID 0000.0001) %MON g__dynstat_g_sss_mean        =   5.4139601892549E-07
(PID.TID 0000.0001) %MON g__dynstat_g_sss_sd          =   1.3994330155063E-04
(PID.TID 0000.0001) %MON g__dynstat_g_sss_del2        =   8.8185798959389E-06
(PID.TID 0000.0001) %MON g__extforcing_g_qnet_max     =   0.0000000000000E+00
(PID.TID 0000.0001) %MON g__extforcing_g_qnet_min     =   0.0000000000000E+00
(PID.TID 0000.0001) %MON g__extforcing_g_qnet_mean    =   0.0000000000000E+00
(PID.TID 0000.0001) %MON g__extforcing_g_qnet_sd      =   0.0000000000000E+00
(PID.TID 0000.0001) %MON g__extforcing_g_qnet_del2    =   0.0000000000000E+00
(PID.TID 0000.0001) %MON g__extforcing_g_empmr_max    =   0.0000000000000E+00
(PID.TID 0000.0001) %MON g__extforcing_g_empmr_min    =   0.0000000000000E+00
(PID.TID 0000.0001) %MON g__extforcing_g_empmr_mean   =   0.0000000000000E+00
(PID.TID 0000.0001) %MON g__extforcing_g_empmr_sd     =   0.0000000000000E+00
(PID.TID 0000.0001) %MON g__extforcing_g_empmr_del2   =   0.0000000000000E+00
(PID.TID 0000.0001) %MON g__extforcing_g_fu_max       =   0.0000000000000E+00
(PID.TID 0000.0001) %MON g__extforcing_g_fu_min       =   0.0000000000000E+00
(PID.TID 0000.0001) %MON g__extforcing_g_fu_mean      =   0.0000000000000E+00
(PID.TID 0000.0001) %MON g__extforcing_g_fu_sd        =   0.0000000000000E+00
(PID.TID 0000.0001) %MON g__extforcing_g_fu_del2      =   0.0000000000000E+00
(PID.TID 0000.0001) %MON g__extforcing_g_fv_max       =   0.0000000000000E+00
(PID.TID 0000.0001) %MON g__extforcing_g_fv_min       =   0.0000000000000E+00
(PID.TID 0000.0001) %MON g__extforcing_g_fv_mean      =   0.0000000000000E+00
(PID.TID 0000.0001) %MON g__extforcing_g_fv_sd        =   0.0000000000000E+00
(PID.TID 0000.0001) %MON g__extforcing_g_fv_del2      =   0.0000000000000E+00
(PID.TID 0000.0001) %MON g__g_vcfl_g_uvel_max         =   1.9641653123075E-05
(PID.TID 0000.0001) %MON g__g_vcfl_g_vvel_max         =   3.3968830000527E-05
(PID.TID 0000.0001) %MON g__g_vcfl_g_wvel_max         =   5.6584956682676E-05
(PID.TID 0000.0001) %MON g__g_vcfl_g_W_hf_max         =   1.2395651140883E-04
(PID.TID 0000.0001) // =======================================================
(PID.TID 0000.0001) // End MONITOR dynamic field statistics
(PID.TID 0000.0001) // =======================================================
 cg2d: Sum(rhs),rhsMax =   5.54870443495889E-12  1.20110125947551E-02
 cg2d: Sum(rhs),rhsMax =   2.42859204968582E-12  9.54625980631859E+00
(PID.TID 0000.0001) // =======================================================
(PID.TID 0000.0001) // Begin MONITOR dynamic field statistics
(PID.TID 0000.0001) // =======================================================
(PID.TID 0000.0001) %MON g__time_tsnumber             =                    79
(PID.TID 0000.0001) %MON g__time_secondsf             =   3.4128000000000E+06
(PID.TID 0000.0001) %MON g__dynstat_g_eta_max         =   3.6322447551410E-03
(PID.TID 0000.0001) %MON g__dynstat_g_eta_min         =  -3.1493500560088E-05
(PID.TID 0000.0001) %MON g__dynstat_g_eta_mean        =  -4.2120106601200E-18
(PID.TID 0000.0001) %MON g__dynstat_g_eta_sd          =   4.6062516458294E-05
(PID.TID 0000.0001) %MON g__dynstat_g_eta_del2        =   1.6170413002485E-06
(PID.TID 0000.0001) %MON g__dynstat_g_uvel_max        =   5.0615975881445E-05
(PID.TID 0000.0001) %MON g__dynstat_g_uvel_min        =  -6.5646634082152E-05
(PID.TID 0000.0001) %MON g__dynstat_g_uvel_mean       =   1.5268321651284E-08
(PID.TID 0000.0001) %MON g__dynstat_g_uvel_sd         =   2.5155472559073E-07
(PID.TID 0000.0001) %MON g__dynstat_g_uvel_del2       =   4.0984728905886E-08
(PID.TID 0000.0001) %MON g__dynstat_g_vvel_max        =   3.5232802327660E-04
(PID.TID 0000.0001) %MON g__dynstat_g_vvel_min        =  -7.4791637294963E-05
(PID.TID 0000.0001) %MON g__dynstat_g_vvel_mean       =   7.2407881681135E-09
(PID.TID 0000.0001) %MON g__dynstat_g_vvel_sd         =   8.6039281918969E-07
(PID.TID 0000.0001) %MON g__dynstat_g_vvel_del2       =   5.5930403881045E-08
(PID.TID 0000.0001) %MON g__dynstat_g_wvel_max        =   8.4518361866274E-08
(PID.TID 0000.0001) %MON g__dynstat_g_wvel_min        =  -3.4080869057628E-08
(PID.TID 0000.0001) %MON g__dynstat_g_wvel_mean       =   1.1945147369479E-27
(PID.TID 0000.0001) %MON g__dynstat_g_wvel_sd         =   4.1428741445558E-10
(PID.TID 0000.0001) %MON g__dynstat_g_wvel_del2       =   8.8190892468773E-11
(PID.TID 0000.0001) %MON g__dynstat_g_theta_max       =   5.9981719565462E-01
(PID.TID 0000.0001) %MON g__dynstat_g_theta_min       =  -4.2519262268450E-04
(PID.TID 0000.0001) %MON g__dynstat_g_theta_mean      =   2.7496706708673E-06
(PID.TID 0000.0001) %MON g__dynstat_g_theta_sd        =   9.7087370996853E-04
(PID.TID 0000.0001) %MON g__dynstat_g_theta_del2      =   2.7092570165804E-05
(PID.TID 0000.0001) %MON g__dynstat_g_salt_max        =   8.4670281171172E-03
(PID.TID 0000.0001) %MON g__dynstat_g_salt_min        =  -7.1704937157037E-03
(PID.TID 0000.0001) %MON g__dynstat_g_salt_mean       =   4.1131339962678E-09
(PID.TID 0000.0001) %MON g__dynstat_g_salt_sd         =   1.6121598327367E-05
(PID.TID 0000.0001) %MON g__dynstat_g_salt_del2       =   8.0779409259201E-07
(PID.TID 0000.0001) %MON g__dynstat_g_sst_max         =   5.9981719565462E-01
(PID.TID 0000.0001) %MON g__dynstat_g_sst_min         =  -9.3302116504868E-05
(PID.TID 0000.0001) %MON g__dynstat_g_sst_mean        =   1.1475633497370E-04
(PID.TID 0000.0001) %MON g__dynstat_g_sst_sd          =   7.6053140386446E-03
(PID.TID 0000.0001) %MON g__dynstat_g_sst_del2        =   2.3811096111958E-04
(PID.TID 0000.0001) %MON g__dynstat_g_sss_max         =   8.4670281171172E-03
(PID.TID 0000.0001) %MON g__dynstat_g_sss_min         =  -7.1704937157037E-03
(PID.TID 0000.0001) %MON g__dynstat_g_sss_mean        =   5.4892420437939E-07
(PID.TID 0000.0001) %MON g__dynstat_g_sss_sd          =   1.4034188370901E-04
(PID.TID 0000.0001) %MON g__dynstat_g_sss_del2        =   8.8428341379104E-06
(PID.TID 0000.0001) %MON g__extforcing_g_qnet_max     =   0.0000000000000E+00
(PID.TID 0000.0001) %MON g__extforcing_g_qnet_min     =   0.0000000000000E+00
(PID.TID 0000.0001) %MON g__extforcing_g_qnet_mean    =   0.0000000000000E+00
(PID.TID 0000.0001) %MON g__extforcing_g_qnet_sd      =   0.0000000000000E+00
(PID.TID 0000.0001) %MON g__extforcing_g_qnet_del2    =   0.0000000000000E+00
(PID.TID 0000.0001) %MON g__extforcing_g_empmr_max    =   0.0000000000000E+00
(PID.TID 0000.0001) %MON g__extforcing_g_empmr_min    =   0.0000000000000E+00
(PID.TID 0000.0001) %MON g__extforcing_g_empmr_mean   =   0.0000000000000E+00
(PID.TID 0000.0001) %MON g__extforcing_g_empmr_sd     =   0.0000000000000E+00
(PID.TID 0000.0001) %MON g__extforcing_g_empmr_del2   =   0.0000000000000E+00
(PID.TID 0000.0001) %MON g__extforcing_g_fu_max       =   0.0000000000000E+00
(PID.TID 0000.0001) %MON g__extforcing_g_fu_min       =   0.0000000000000E+00
(PID.TID 0000.0001) %MON g__extforcing_g_fu_mean      =   0.0000000000000E+00
(PID.TID 0000.0001) %MON g__extforcing_g_fu_sd        =   0.0000000000000E+00
(PID.TID 0000.0001) %MON g__extforcing_g_fu_del2      =   0.0000000000000E+00
(PID.TID 0000.0001) %MON g__extforcing_g_fv_max       =   0.0000000000000E+00
(PID.TID 0000.0001) %MON g__extforcing_g_fv_min       =   0.0000000000000E+00
(PID.TID 0000.0001) %MON g__extforcing_g_fv_mean      =   0.0000000000000E+00
(PID.TID 0000.0001) %MON g__extforcing_g_fv_sd        =   0.0000000000000E+00
(PID.TID 0000.0001) %MON g__extforcing_g_fv_del2      =   0.0000000000000E+00
(PID.TID 0000.0001) %MON g__g_vcfl_g_uvel_max         =   1.8645229536359E-05
(PID.TID 0000.0001) %MON g__g_vcfl_g_vvel_max         =   3.4225842130253E-05
(PID.TID 0000.0001) %MON g__g_vcfl_g_wvel_max         =   5.3933725196192E-05
(PID.TID 0000.0001) %MON g__g_vcfl_g_W_hf_max         =   1.2944094047086E-04
(PID.TID 0000.0001) // =======================================================
(PID.TID 0000.0001) // End MONITOR dynamic field statistics
(PID.TID 0000.0001) // =======================================================
 cg2d: Sum(rhs),rhsMax =   5.56098878428045E-12  1.19230110575954E-02
 cg2d: Sum(rhs),rhsMax =   2.16853618395518E-12  9.44553374716872E+00
(PID.TID 0000.0001) // =======================================================
(PID.TID 0000.0001) // Begin MONITOR dynamic field statistics
(PID.TID 0000.0001) // =======================================================
(PID.TID 0000.0001) %MON g__time_tsnumber             =                    80
(PID.TID 0000.0001) %MON g__time_secondsf             =   3.4560000000000E+06
(PID.TID 0000.0001) %MON g__dynstat_g_eta_max         =   3.6048559194744E-03
(PID.TID 0000.0001) %MON g__dynstat_g_eta_min         =  -3.3547588286384E-05
(PID.TID 0000.0001) %MON g__dynstat_g_eta_mean        =  -4.1767208103607E-18
(PID.TID 0000.0001) %MON g__dynstat_g_eta_sd          =   4.5709306196144E-05
(PID.TID 0000.0001) %MON g__dynstat_g_eta_del2        =   1.6079595671327E-06
(PID.TID 0000.0001) %MON g__dynstat_g_uvel_max        =   7.0312539604945E-05
(PID.TID 0000.0001) %MON g__dynstat_g_uvel_min        =  -6.5867770112557E-05
(PID.TID 0000.0001) %MON g__dynstat_g_uvel_mean       =   1.2810061775507E-08
(PID.TID 0000.0001) %MON g__dynstat_g_uvel_sd         =   2.5702617193001E-07
(PID.TID 0000.0001) %MON g__dynstat_g_uvel_del2       =   4.1124637121312E-08
(PID.TID 0000.0001) %MON g__dynstat_g_vvel_max        =   3.5473133248741E-04
(PID.TID 0000.0001) %MON g__dynstat_g_vvel_min        =  -7.5956382107400E-05
(PID.TID 0000.0001) %MON g__dynstat_g_vvel_mean       =   7.4150352054109E-09
(PID.TID 0000.0001) %MON g__dynstat_g_vvel_sd         =   8.6249438447269E-07
(PID.TID 0000.0001) %MON g__dynstat_g_vvel_del2       =   5.5816119723368E-08
(PID.TID 0000.0001) %MON g__dynstat_g_wvel_max        =   8.8295359960637E-08
(PID.TID 0000.0001) %MON g__dynstat_g_wvel_min        =  -3.4132157496297E-08
(PID.TID 0000.0001) %MON g__dynstat_g_wvel_mean       =  -2.4422279034346E-27
(PID.TID 0000.0001) %MON g__dynstat_g_wvel_sd         =   4.2226903952961E-10
(PID.TID 0000.0001) %MON g__dynstat_g_wvel_del2       =   8.8440830945470E-11
(PID.TID 0000.0001) %MON g__dynstat_g_theta_max       =   5.9372584069108E-01
(PID.TID 0000.0001) %MON g__dynstat_g_theta_min       =  -4.3343267681033E-04
(PID.TID 0000.0001) %MON g__dynstat_g_theta_mean      =   2.7395612672666E-06
(PID.TID 0000.0001) %MON g__dynstat_g_theta_sd        =   9.6338070918185E-04
(PID.TID 0000.0001) %MON g__dynstat_g_theta_del2      =   2.6902687885055E-05
(PID.TID 0000.0001) %MON g__dynstat_g_salt_max        =   8.5010668348271E-03
(PID.TID 0000.0001) %MON g__dynstat_g_salt_min        =  -7.1936245815841E-03
(PID.TID 0000.0001) %MON g__dynstat_g_salt_mean       =   4.4337332468520E-09
(PID.TID 0000.0001) %MON g__dynstat_g_salt_sd         =   1.6184117139081E-05
(PID.TID 0000.0001) %MON g__dynstat_g_salt_del2       =   8.1179324140624E-07
(PID.TID 0000.0001) %MON g__dynstat_g_sst_max         =   5.9372584069108E-01
(PID.TID 0000.0001) %MON g__dynstat_g_sst_min         =  -9.6757300396447E-05
(PID.TID 0000.0001) %MON g__dynstat_g_sst_mean        =   1.1371103533804E-04
(PID.TID 0000.0001) %MON g__dynstat_g_sst_sd          =   7.5289655758773E-03
(PID.TID 0000.0001) %MON g__dynstat_g_sst_del2        =   2.3558513434946E-04
(PID.TID 0000.0001) %MON g__dynstat_g_sss_max         =   8.5010668348271E-03
(PID.TID 0000.0001) %MON g__dynstat_g_sss_min         =  -7.1936245815841E-03
(PID.TID 0000.0001) %MON g__dynstat_g_sss_mean        =   5.5682893701281E-07
(PID.TID 0000.0001) %MON g__dynstat_g_sss_sd          =   1.4087066315477E-04
(PID.TID 0000.0001) %MON g__dynstat_g_sss_del2        =   8.8747160795570E-06
(PID.TID 0000.0001) %MON g__extforcing_g_qnet_max     =   0.0000000000000E+00
(PID.TID 0000.0001) %MON g__extforcing_g_qnet_min     =   0.0000000000000E+00
(PID.TID 0000.0001) %MON g__extforcing_g_qnet_mean    =   0.0000000000000E+00
(PID.TID 0000.0001) %MON g__extforcing_g_qnet_sd      =   0.0000000000000E+00
(PID.TID 0000.0001) %MON g__extforcing_g_qnet_del2    =   0.0000000000000E+00
(PID.TID 0000.0001) %MON g__extforcing_g_empmr_max    =   0.0000000000000E+00
(PID.TID 0000.0001) %MON g__extforcing_g_empmr_min    =   0.0000000000000E+00
(PID.TID 0000.0001) %MON g__extforcing_g_empmr_mean   =   0.0000000000000E+00
(PID.TID 0000.0001) %MON g__extforcing_g_empmr_sd     =   0.0000000000000E+00
(PID.TID 0000.0001) %MON g__extforcing_g_empmr_del2   =   0.0000000000000E+00
(PID.TID 0000.0001) %MON g__extforcing_g_fu_max       =   0.0000000000000E+00
(PID.TID 0000.0001) %MON g__extforcing_g_fu_min       =   0.0000000000000E+00
(PID.TID 0000.0001) %MON g__extforcing_g_fu_mean      =   0.0000000000000E+00
(PID.TID 0000.0001) %MON g__extforcing_g_fu_sd        =   0.0000000000000E+00
(PID.TID 0000.0001) %MON g__extforcing_g_fu_del2      =   0.0000000000000E+00
(PID.TID 0000.0001) %MON g__extforcing_g_fv_max       =   0.0000000000000E+00
(PID.TID 0000.0001) %MON g__extforcing_g_fv_min       =   0.0000000000000E+00
(PID.TID 0000.0001) %MON g__extforcing_g_fv_mean      =   0.0000000000000E+00
(PID.TID 0000.0001) %MON g__extforcing_g_fv_sd        =   0.0000000000000E+00
(PID.TID 0000.0001) %MON g__extforcing_g_fv_del2      =   0.0000000000000E+00
(PID.TID 0000.0001) %MON g__g_vcfl_g_uvel_max         =   2.4780020703636E-05
(PID.TID 0000.0001) %MON g__g_vcfl_g_vvel_max         =   3.4459304347860E-05
(PID.TID 0000.0001) %MON g__g_vcfl_g_wvel_max         =   5.6147321278698E-05
(PID.TID 0000.0001) %MON g__g_vcfl_g_W_hf_max         =   1.3475357106887E-04
(PID.TID 0000.0001) // =======================================================
(PID.TID 0000.0001) // End MONITOR dynamic field statistics
(PID.TID 0000.0001) // =======================================================
 myIter=  80
(PID.TID 0000.0001) // Model state written, timestep        80
(PID.TID 0000.0001) 
 cg2d: Sum(rhs),rhsMax =   5.54496158567683E-12  1.18559823932037E-02
 cg2d: Sum(rhs),rhsMax =   2.54526261178611E-12  9.24503765445443E+00
(PID.TID 0000.0001) // =======================================================
(PID.TID 0000.0001) // Begin MONITOR dynamic field statistics
(PID.TID 0000.0001) // =======================================================
(PID.TID 0000.0001) %MON g__time_tsnumber             =                    81
(PID.TID 0000.0001) %MON g__time_secondsf             =   3.4992000000000E+06
(PID.TID 0000.0001) %MON g__dynstat_g_eta_max         =   3.5840305376320E-03
(PID.TID 0000.0001) %MON g__dynstat_g_eta_min         =  -3.5061326636501E-05
(PID.TID 0000.0001) %MON g__dynstat_g_eta_mean        =  -4.1200426216937E-18
(PID.TID 0000.0001) %MON g__dynstat_g_eta_sd          =   4.5440718713022E-05
(PID.TID 0000.0001) %MON g__dynstat_g_eta_del2        =   1.6018715700412E-06
(PID.TID 0000.0001) %MON g__dynstat_g_uvel_max        =   8.7318038209171E-05
(PID.TID 0000.0001) %MON g__dynstat_g_uvel_min        =  -6.6151857175983E-05
(PID.TID 0000.0001) %MON g__dynstat_g_uvel_mean       =   1.0271237120743E-08
(PID.TID 0000.0001) %MON g__dynstat_g_uvel_sd         =   2.7064572682389E-07
(PID.TID 0000.0001) %MON g__dynstat_g_uvel_del2       =   4.1583612648080E-08
(PID.TID 0000.0001) %MON g__dynstat_g_vvel_max        =   3.5684746129231E-04
(PID.TID 0000.0001) %MON g__dynstat_g_vvel_min        =  -7.7073832548236E-05
(PID.TID 0000.0001) %MON g__dynstat_g_vvel_mean       =   7.4514498771030E-09
(PID.TID 0000.0001) %MON g__dynstat_g_vvel_sd         =   8.6386959017331E-07
(PID.TID 0000.0001) %MON g__dynstat_g_vvel_del2       =   5.5575160672829E-08
(PID.TID 0000.0001) %MON g__dynstat_g_wvel_max        =   9.1596909723868E-08
(PID.TID 0000.0001) %MON g__dynstat_g_wvel_min        =  -3.4029124567804E-08
(PID.TID 0000.0001) %MON g__dynstat_g_wvel_mean       =  -1.6509012640443E-27
(PID.TID 0000.0001) %MON g__dynstat_g_wvel_sd         =   4.3141669584961E-10
(PID.TID 0000.0001) %MON g__dynstat_g_wvel_del2       =   8.8139001487745E-11
(PID.TID 0000.0001) %MON g__dynstat_g_theta_max       =   5.8809605405116E-01
(PID.TID 0000.0001) %MON g__dynstat_g_theta_min       =  -4.4158494791160E-04
(PID.TID 0000.0001) %MON g__dynstat_g_theta_mean      =   2.7325232351104E-06
(PID.TID 0000.0001) %MON g__dynstat_g_theta_sd        =   9.5682631186446E-04
(PID.TID 0000.0001) %MON g__dynstat_g_theta_del2      =   2.6742515178225E-05
(PID.TID 0000.0001) %MON g__dynstat_g_salt_max        =   8.5425908166555E-03
(PID.TID 0000.0001) %MON g__dynstat_g_salt_min        =  -7.2233367280651E-03
(PID.TID 0000.0001) %MON g__dynstat_g_salt_mean       =   4.7222124183002E-09
(PID.TID 0000.0001) %MON g__dynstat_g_salt_sd         =   1.6261410532039E-05
(PID.TID 0000.0001) %MON g__dynstat_g_salt_del2       =   8.1654106402221E-07
(PID.TID 0000.0001) %MON g__dynstat_g_sst_max         =   5.8809605405116E-01
(PID.TID 0000.0001) %MON g__dynstat_g_sst_min         =  -1.0000174266404E-04
(PID.TID 0000.0001) %MON g__dynstat_g_sst_mean        =   1.1275106849382E-04
(PID.TID 0000.0001) %MON g__dynstat_g_sst_sd          =   7.4584779794934E-03
(PID.TID 0000.0001) %MON g__dynstat_g_sst_del2        =   2.3324188138342E-04
(PID.TID 0000.0001) %MON g__dynstat_g_sss_max         =   8.5425908166555E-03
(PID.TID 0000.0001) %MON g__dynstat_g_sss_min         =  -7.2233367280651E-03
(PID.TID 0000.0001) %MON g__dynstat_g_sss_mean        =   5.6510001964063E-07
(PID.TID 0000.0001) %MON g__dynstat_g_sss_sd          =   1.4152699414793E-04
(PID.TID 0000.0001) %MON g__dynstat_g_sss_del2        =   8.9139916852605E-06
(PID.TID 0000.0001) %MON g__extforcing_g_qnet_max     =   0.0000000000000E+00
(PID.TID 0000.0001) %MON g__extforcing_g_qnet_min     =   0.0000000000000E+00
(PID.TID 0000.0001) %MON g__extforcing_g_qnet_mean    =   0.0000000000000E+00
(PID.TID 0000.0001) %MON g__extforcing_g_qnet_sd      =   0.0000000000000E+00
(PID.TID 0000.0001) %MON g__extforcing_g_qnet_del2    =   0.0000000000000E+00
(PID.TID 0000.0001) %MON g__extforcing_g_empmr_max    =   0.0000000000000E+00
(PID.TID 0000.0001) %MON g__extforcing_g_empmr_min    =   0.0000000000000E+00
(PID.TID 0000.0001) %MON g__extforcing_g_empmr_mean   =   0.0000000000000E+00
(PID.TID 0000.0001) %MON g__extforcing_g_empmr_sd     =   0.0000000000000E+00
(PID.TID 0000.0001) %MON g__extforcing_g_empmr_del2   =   0.0000000000000E+00
(PID.TID 0000.0001) %MON g__extforcing_g_fu_max       =   0.0000000000000E+00
(PID.TID 0000.0001) %MON g__extforcing_g_fu_min       =   0.0000000000000E+00
(PID.TID 0000.0001) %MON g__extforcing_g_fu_mean      =   0.0000000000000E+00
(PID.TID 0000.0001) %MON g__extforcing_g_fu_sd        =   0.0000000000000E+00
(PID.TID 0000.0001) %MON g__extforcing_g_fu_del2      =   0.0000000000000E+00
(PID.TID 0000.0001) %MON g__extforcing_g_fv_max       =   0.0000000000000E+00
(PID.TID 0000.0001) %MON g__extforcing_g_fv_min       =   0.0000000000000E+00
(PID.TID 0000.0001) %MON g__extforcing_g_fv_mean      =   0.0000000000000E+00
(PID.TID 0000.0001) %MON g__extforcing_g_fv_sd        =   0.0000000000000E+00
(PID.TID 0000.0001) %MON g__extforcing_g_fv_del2      =   0.0000000000000E+00
(PID.TID 0000.0001) %MON g__g_vcfl_g_uvel_max         =   3.0773213523239E-05
(PID.TID 0000.0001) %MON g__g_vcfl_g_vvel_max         =   3.4664869291943E-05
(PID.TID 0000.0001) %MON g__g_vcfl_g_wvel_max         =   5.8103406247660E-05
(PID.TID 0000.0001) %MON g__g_vcfl_g_W_hf_max         =   1.3944817499439E-04
(PID.TID 0000.0001) // =======================================================
(PID.TID 0000.0001) // End MONITOR dynamic field statistics
(PID.TID 0000.0001) // =======================================================
 cg2d: Sum(rhs),rhsMax =   5.49010626749268E-12  1.18091938512301E-02
 cg2d: Sum(rhs),rhsMax =   2.56763360573231E-12  8.95108976893283E+00
(PID.TID 0000.0001) // =======================================================
(PID.TID 0000.0001) // Begin MONITOR dynamic field statistics
(PID.TID 0000.0001) // =======================================================
(PID.TID 0000.0001) %MON g__time_tsnumber             =                    82
(PID.TID 0000.0001) %MON g__time_secondsf             =   3.5424000000000E+06
(PID.TID 0000.0001) %MON g__dynstat_g_eta_max         =   3.5695835872564E-03
(PID.TID 0000.0001) %MON g__dynstat_g_eta_min         =  -3.5936898616098E-05
(PID.TID 0000.0001) %MON g__dynstat_g_eta_mean        =  -4.0674926673244E-18
(PID.TID 0000.0001) %MON g__dynstat_g_eta_sd          =   4.5254695691029E-05
(PID.TID 0000.0001) %MON g__dynstat_g_eta_del2        =   1.5982008193119E-06
(PID.TID 0000.0001) %MON g__dynstat_g_uvel_max        =   1.0136777009023E-04
(PID.TID 0000.0001) %MON g__dynstat_g_uvel_min        =  -6.6510840971519E-05
(PID.TID 0000.0001) %MON g__dynstat_g_uvel_mean       =   7.7665252221712E-09
(PID.TID 0000.0001) %MON g__dynstat_g_uvel_sd         =   2.8838875009107E-07
(PID.TID 0000.0001) %MON g__dynstat_g_uvel_del2       =   4.2280392336660E-08
(PID.TID 0000.0001) %MON g__dynstat_g_vvel_max        =   3.5866310366464E-04
(PID.TID 0000.0001) %MON g__dynstat_g_vvel_min        =  -7.8061635178128E-05
(PID.TID 0000.0001) %MON g__dynstat_g_vvel_mean       =   7.2998771862645E-09
(PID.TID 0000.0001) %MON g__dynstat_g_vvel_sd         =   8.6472934903835E-07
(PID.TID 0000.0001) %MON g__dynstat_g_vvel_del2       =   5.5222403719440E-08
(PID.TID 0000.0001) %MON g__dynstat_g_wvel_max        =   9.4181797409992E-08
(PID.TID 0000.0001) %MON g__dynstat_g_wvel_min        =  -3.3796686796801E-08
(PID.TID 0000.0001) %MON g__dynstat_g_wvel_mean       =  -9.5722174203117E-28
(PID.TID 0000.0001) %MON g__dynstat_g_wvel_sd         =   4.4094928207223E-10
(PID.TID 0000.0001) %MON g__dynstat_g_wvel_del2       =   8.7329272052231E-11
(PID.TID 0000.0001) %MON g__dynstat_g_theta_max       =   5.8288441158162E-01
(PID.TID 0000.0001) %MON g__dynstat_g_theta_min       =  -4.4959352772496E-04
(PID.TID 0000.0001) %MON g__dynstat_g_theta_mean      =   2.7284455779277E-06
(PID.TID 0000.0001) %MON g__dynstat_g_theta_sd        =   9.5113344764474E-04
(PID.TID 0000.0001) %MON g__dynstat_g_theta_del2      =   2.6609985647563E-05
(PID.TID 0000.0001) %MON g__dynstat_g_salt_max        =   8.5908708385271E-03
(PID.TID 0000.0001) %MON g__dynstat_g_salt_min        =  -7.2592229369752E-03
(PID.TID 0000.0001) %MON g__dynstat_g_salt_mean       =   4.9673101376580E-09
(PID.TID 0000.0001) %MON g__dynstat_g_salt_sd         =   1.6352395511849E-05
(PID.TID 0000.0001) %MON g__dynstat_g_salt_del2       =   8.2186448849228E-07
(PID.TID 0000.0001) %MON g__dynstat_g_sst_max         =   5.8288441158162E-01
(PID.TID 0000.0001) %MON g__dynstat_g_sst_min         =  -1.0303667809253E-04
(PID.TID 0000.0001) %MON g__dynstat_g_sst_mean        =   1.1187102630600E-04
(PID.TID 0000.0001) %MON g__dynstat_g_sst_sd          =   7.3933009407162E-03
(PID.TID 0000.0001) %MON g__dynstat_g_sst_del2        =   2.3106723275956E-04
(PID.TID 0000.0001) %MON g__dynstat_g_sss_max         =   8.5908708385271E-03
(PID.TID 0000.0001) %MON g__dynstat_g_sss_min         =  -7.2592229369752E-03
(PID.TID 0000.0001) %MON g__dynstat_g_sss_mean        =   5.7371315218083E-07
(PID.TID 0000.0001) %MON g__dynstat_g_sss_sd          =   1.4230071212935E-04
(PID.TID 0000.0001) %MON g__dynstat_g_sss_del2        =   8.9593136193444E-06
(PID.TID 0000.0001) %MON g__extforcing_g_qnet_max     =   0.0000000000000E+00
(PID.TID 0000.0001) %MON g__extforcing_g_qnet_min     =   0.0000000000000E+00
(PID.TID 0000.0001) %MON g__extforcing_g_qnet_mean    =   0.0000000000000E+00
(PID.TID 0000.0001) %MON g__extforcing_g_qnet_sd      =   0.0000000000000E+00
(PID.TID 0000.0001) %MON g__extforcing_g_qnet_del2    =   0.0000000000000E+00
(PID.TID 0000.0001) %MON g__extforcing_g_empmr_max    =   0.0000000000000E+00
(PID.TID 0000.0001) %MON g__extforcing_g_empmr_min    =   0.0000000000000E+00
(PID.TID 0000.0001) %MON g__extforcing_g_empmr_mean   =   0.0000000000000E+00
(PID.TID 0000.0001) %MON g__extforcing_g_empmr_sd     =   0.0000000000000E+00
(PID.TID 0000.0001) %MON g__extforcing_g_empmr_del2   =   0.0000000000000E+00
(PID.TID 0000.0001) %MON g__extforcing_g_fu_max       =   0.0000000000000E+00
(PID.TID 0000.0001) %MON g__extforcing_g_fu_min       =   0.0000000000000E+00
(PID.TID 0000.0001) %MON g__extforcing_g_fu_mean      =   0.0000000000000E+00
(PID.TID 0000.0001) %MON g__extforcing_g_fu_sd        =   0.0000000000000E+00
(PID.TID 0000.0001) %MON g__extforcing_g_fu_del2      =   0.0000000000000E+00
(PID.TID 0000.0001) %MON g__extforcing_g_fv_max       =   0.0000000000000E+00
(PID.TID 0000.0001) %MON g__extforcing_g_fv_min       =   0.0000000000000E+00
(PID.TID 0000.0001) %MON g__extforcing_g_fv_mean      =   0.0000000000000E+00
(PID.TID 0000.0001) %MON g__extforcing_g_fv_sd        =   0.0000000000000E+00
(PID.TID 0000.0001) %MON g__extforcing_g_fv_del2      =   0.0000000000000E+00
(PID.TID 0000.0001) %MON g__g_vcfl_g_uvel_max         =   3.5724715045574E-05
(PID.TID 0000.0001) %MON g__g_vcfl_g_vvel_max         =   3.4841244388714E-05
(PID.TID 0000.0001) %MON g__g_vcfl_g_wvel_max         =   5.9637677007648E-05
(PID.TID 0000.0001) %MON g__g_vcfl_g_W_hf_max         =   1.4313042481836E-04
(PID.TID 0000.0001) // =======================================================
(PID.TID 0000.0001) // End MONITOR dynamic field statistics
(PID.TID 0000.0001) // =======================================================
 cg2d: Sum(rhs),rhsMax =   5.43475370835772E-12  1.17807377272903E-02
 cg2d: Sum(rhs),rhsMax =   3.40433237155935E-12  8.57195997233524E+00
(PID.TID 0000.0001) // =======================================================
(PID.TID 0000.0001) // Begin MONITOR dynamic field statistics
(PID.TID 0000.0001) // =======================================================
(PID.TID 0000.0001) %MON g__time_tsnumber             =                    83
(PID.TID 0000.0001) %MON g__time_secondsf             =   3.5856000000000E+06
(PID.TID 0000.0001) %MON g__dynstat_g_eta_max         =   3.5609431260495E-03
(PID.TID 0000.0001) %MON g__dynstat_g_eta_min         =  -3.6147764931925E-05
(PID.TID 0000.0001) %MON g__dynstat_g_eta_mean        =  -4.0374534554475E-18
(PID.TID 0000.0001) %MON g__dynstat_g_eta_sd          =   4.5143976471292E-05
(PID.TID 0000.0001) %MON g__dynstat_g_eta_del2        =   1.5973947787555E-06
(PID.TID 0000.0001) %MON g__dynstat_g_uvel_max        =   1.1228195556833E-04
(PID.TID 0000.0001) %MON g__dynstat_g_uvel_min        =  -6.6958458944092E-05
(PID.TID 0000.0001) %MON g__dynstat_g_uvel_mean       =   5.4068278750314E-09
(PID.TID 0000.0001) %MON g__dynstat_g_uvel_sd         =   3.0674407431209E-07
(PID.TID 0000.0001) %MON g__dynstat_g_uvel_del2       =   4.2952710524703E-08
(PID.TID 0000.0001) %MON g__dynstat_g_vvel_max        =   3.6018857991190E-04
(PID.TID 0000.0001) %MON g__dynstat_g_vvel_min        =  -7.8848391475345E-05
(PID.TID 0000.0001) %MON g__dynstat_g_vvel_mean       =   6.9227662519576E-09
(PID.TID 0000.0001) %MON g__dynstat_g_vvel_sd         =   8.6530862938133E-07
(PID.TID 0000.0001) %MON g__dynstat_g_vvel_del2       =   5.4683372502438E-08
(PID.TID 0000.0001) %MON g__dynstat_g_wvel_max        =   9.5865589585518E-08
(PID.TID 0000.0001) %MON g__dynstat_g_wvel_min        =  -3.3466083409747E-08
(PID.TID 0000.0001) %MON g__dynstat_g_wvel_mean       =   1.6036526588617E-27
(PID.TID 0000.0001) %MON g__dynstat_g_wvel_sd         =   4.4995938133157E-10
(PID.TID 0000.0001) %MON g__dynstat_g_wvel_del2       =   8.6402382486148E-11
(PID.TID 0000.0001) %MON g__dynstat_g_theta_max       =   5.7803244549668E-01
(PID.TID 0000.0001) %MON g__dynstat_g_theta_min       =  -4.5741622222815E-04
(PID.TID 0000.0001) %MON g__dynstat_g_theta_mean      =   2.7270997424564E-06
(PID.TID 0000.0001) %MON g__dynstat_g_theta_sd        =   9.4619283308780E-04
(PID.TID 0000.0001) %MON g__dynstat_g_theta_del2      =   2.6501068754676E-05
(PID.TID 0000.0001) %MON g__dynstat_g_salt_max        =   8.6448224513190E-03
(PID.TID 0000.0001) %MON g__dynstat_g_salt_min        =  -7.3005290580111E-03
(PID.TID 0000.0001) %MON g__dynstat_g_salt_mean       =   5.1623732166206E-09
(PID.TID 0000.0001) %MON g__dynstat_g_salt_sd         =   1.6455272613496E-05
(PID.TID 0000.0001) %MON g__dynstat_g_salt_del2       =   8.2777524268909E-07
(PID.TID 0000.0001) %MON g__dynstat_g_sst_max         =   5.7803244549668E-01
(PID.TID 0000.0001) %MON g__dynstat_g_sst_min         =  -1.0586142527892E-04
(PID.TID 0000.0001) %MON g__dynstat_g_sst_mean        =   1.1106092991568E-04
(PID.TID 0000.0001) %MON g__dynstat_g_sst_sd          =   7.3326919621314E-03
(PID.TID 0000.0001) %MON g__dynstat_g_sst_del2        =   2.2903629173642E-04
(PID.TID 0000.0001) %MON g__dynstat_g_sss_max         =   8.6448224513190E-03
(PID.TID 0000.0001) %MON g__dynstat_g_sss_min         =  -7.3005290580111E-03
(PID.TID 0000.0001) %MON g__dynstat_g_sss_mean        =   5.8225683662315E-07
(PID.TID 0000.0001) %MON g__dynstat_g_sss_sd          =   1.4317533485604E-04
(PID.TID 0000.0001) %MON g__dynstat_g_sss_del2        =   9.0107433446977E-06
(PID.TID 0000.0001) %MON g__extforcing_g_qnet_max     =   0.0000000000000E+00
(PID.TID 0000.0001) %MON g__extforcing_g_qnet_min     =   0.0000000000000E+00
(PID.TID 0000.0001) %MON g__extforcing_g_qnet_mean    =   0.0000000000000E+00
(PID.TID 0000.0001) %MON g__extforcing_g_qnet_sd      =   0.0000000000000E+00
(PID.TID 0000.0001) %MON g__extforcing_g_qnet_del2    =   0.0000000000000E+00
(PID.TID 0000.0001) %MON g__extforcing_g_empmr_max    =   0.0000000000000E+00
(PID.TID 0000.0001) %MON g__extforcing_g_empmr_min    =   0.0000000000000E+00
(PID.TID 0000.0001) %MON g__extforcing_g_empmr_mean   =   0.0000000000000E+00
(PID.TID 0000.0001) %MON g__extforcing_g_empmr_sd     =   0.0000000000000E+00
(PID.TID 0000.0001) %MON g__extforcing_g_empmr_del2   =   0.0000000000000E+00
(PID.TID 0000.0001) %MON g__extforcing_g_fu_max       =   0.0000000000000E+00
(PID.TID 0000.0001) %MON g__extforcing_g_fu_min       =   0.0000000000000E+00
(PID.TID 0000.0001) %MON g__extforcing_g_fu_mean      =   0.0000000000000E+00
(PID.TID 0000.0001) %MON g__extforcing_g_fu_sd        =   0.0000000000000E+00
(PID.TID 0000.0001) %MON g__extforcing_g_fu_del2      =   0.0000000000000E+00
(PID.TID 0000.0001) %MON g__extforcing_g_fv_max       =   0.0000000000000E+00
(PID.TID 0000.0001) %MON g__extforcing_g_fv_min       =   0.0000000000000E+00
(PID.TID 0000.0001) %MON g__extforcing_g_fv_mean      =   0.0000000000000E+00
(PID.TID 0000.0001) %MON g__extforcing_g_fv_sd        =   0.0000000000000E+00
(PID.TID 0000.0001) %MON g__extforcing_g_fv_del2      =   0.0000000000000E+00
(PID.TID 0000.0001) %MON g__g_vcfl_g_uvel_max         =   3.9571166100113E-05
(PID.TID 0000.0001) %MON g__g_vcfl_g_vvel_max         =   3.4989432173286E-05
(PID.TID 0000.0001) %MON g__g_vcfl_g_wvel_max         =   6.0618689399830E-05
(PID.TID 0000.0001) %MON g__g_vcfl_g_W_hf_max         =   1.4548485455959E-04
(PID.TID 0000.0001) // =======================================================
(PID.TID 0000.0001) // End MONITOR dynamic field statistics
(PID.TID 0000.0001) // =======================================================
 cg2d: Sum(rhs),rhsMax =   5.39843196742080E-12  1.17677606874790E-02
 cg2d: Sum(rhs),rhsMax =   3.38513939102114E-12  8.11762771956998E+00
(PID.TID 0000.0001) // =======================================================
(PID.TID 0000.0001) // Begin MONITOR dynamic field statistics
(PID.TID 0000.0001) // =======================================================
(PID.TID 0000.0001) %MON g__time_tsnumber             =                    84
(PID.TID 0000.0001) %MON g__time_secondsf             =   3.6288000000000E+06
(PID.TID 0000.0001) %MON g__dynstat_g_eta_max         =   3.5572226273259E-03
(PID.TID 0000.0001) %MON g__dynstat_g_eta_min         =  -3.5735469063414E-05
(PID.TID 0000.0001) %MON g__dynstat_g_eta_mean        =  -4.0284810848784E-18
(PID.TID 0000.0001) %MON g__dynstat_g_eta_sd          =   4.5097062315970E-05
(PID.TID 0000.0001) %MON g__dynstat_g_eta_del2        =   1.5990418607666E-06
(PID.TID 0000.0001) %MON g__dynstat_g_uvel_max        =   1.1996065326820E-04
(PID.TID 0000.0001) %MON g__dynstat_g_uvel_min        =  -6.7507990813823E-05
(PID.TID 0000.0001) %MON g__dynstat_g_uvel_mean       =   3.2929619811718E-09
(PID.TID 0000.0001) %MON g__dynstat_g_uvel_sd         =   3.2311947143724E-07
(PID.TID 0000.0001) %MON g__dynstat_g_uvel_del2       =   4.3499143484502E-08
(PID.TID 0000.0001) %MON g__dynstat_g_vvel_max        =   3.6144960551083E-04
(PID.TID 0000.0001) %MON g__dynstat_g_vvel_min        =  -7.9378050113552E-05
(PID.TID 0000.0001) %MON g__dynstat_g_vvel_mean       =   6.2965182907370E-09
(PID.TID 0000.0001) %MON g__dynstat_g_vvel_sd         =   8.6582916588607E-07
(PID.TID 0000.0001) %MON g__dynstat_g_vvel_del2       =   5.4058092522550E-08
(PID.TID 0000.0001) %MON g__dynstat_g_wvel_max        =   9.6530064915155E-08
(PID.TID 0000.0001) %MON g__dynstat_g_wvel_min        =  -3.3072223277433E-08
(PID.TID 0000.0001) %MON g__dynstat_g_wvel_mean       =  -1.0550438542424E-27
(PID.TID 0000.0001) %MON g__dynstat_g_wvel_sd         =   4.5754669625541E-10
(PID.TID 0000.0001) %MON g__dynstat_g_wvel_del2       =   8.5442063688950E-11
(PID.TID 0000.0001) %MON g__dynstat_g_theta_max       =   5.7347169734530E-01
(PID.TID 0000.0001) %MON g__dynstat_g_theta_min       =  -4.6502625014957E-04
(PID.TID 0000.0001) %MON g__dynstat_g_theta_mean      =   2.7281627702434E-06
(PID.TID 0000.0001) %MON g__dynstat_g_theta_sd        =   9.4187227746033E-04
(PID.TID 0000.0001) %MON g__dynstat_g_theta_del2      =   2.6409855897408E-05
(PID.TID 0000.0001) %MON g__dynstat_g_salt_max        =   8.7030898356266E-03
(PID.TID 0000.0001) %MON g__dynstat_g_salt_min        =  -7.3462264293595E-03
(PID.TID 0000.0001) %MON g__dynstat_g_salt_mean       =   5.3055698831820E-09
(PID.TID 0000.0001) %MON g__dynstat_g_salt_sd         =   1.6567665497497E-05
(PID.TID 0000.0001) %MON g__dynstat_g_salt_del2       =   8.3449235274596E-07
(PID.TID 0000.0001) %MON g__dynstat_g_sst_max         =   5.7347169734530E-01
(PID.TID 0000.0001) %MON g__dynstat_g_sst_min         =  -1.0846839970858E-04
(PID.TID 0000.0001) %MON g__dynstat_g_sst_mean        =   1.1030914787498E-04
(PID.TID 0000.0001) %MON g__dynstat_g_sst_sd          =   7.2757805688289E-03
(PID.TID 0000.0001) %MON g__dynstat_g_sst_del2        =   2.2712327900586E-04
(PID.TID 0000.0001) %MON g__dynstat_g_sss_max         =   8.7030898356266E-03
(PID.TID 0000.0001) %MON g__dynstat_g_sss_min         =  -7.3462264293595E-03
(PID.TID 0000.0001) %MON g__dynstat_g_sss_mean        =   5.9080091392004E-07
(PID.TID 0000.0001) %MON g__dynstat_g_sss_sd          =   1.4412943743379E-04
(PID.TID 0000.0001) %MON g__dynstat_g_sss_del2        =   9.0665296081697E-06
(PID.TID 0000.0001) %MON g__extforcing_g_qnet_max     =   0.0000000000000E+00
(PID.TID 0000.0001) %MON g__extforcing_g_qnet_min     =   0.0000000000000E+00
(PID.TID 0000.0001) %MON g__extforcing_g_qnet_mean    =   0.0000000000000E+00
(PID.TID 0000.0001) %MON g__extforcing_g_qnet_sd      =   0.0000000000000E+00
(PID.TID 0000.0001) %MON g__extforcing_g_qnet_del2    =   0.0000000000000E+00
(PID.TID 0000.0001) %MON g__extforcing_g_empmr_max    =   0.0000000000000E+00
(PID.TID 0000.0001) %MON g__extforcing_g_empmr_min    =   0.0000000000000E+00
(PID.TID 0000.0001) %MON g__extforcing_g_empmr_mean   =   0.0000000000000E+00
(PID.TID 0000.0001) %MON g__extforcing_g_empmr_sd     =   0.0000000000000E+00
(PID.TID 0000.0001) %MON g__extforcing_g_empmr_del2   =   0.0000000000000E+00
(PID.TID 0000.0001) %MON g__extforcing_g_fu_max       =   0.0000000000000E+00
(PID.TID 0000.0001) %MON g__extforcing_g_fu_min       =   0.0000000000000E+00
(PID.TID 0000.0001) %MON g__extforcing_g_fu_mean      =   0.0000000000000E+00
(PID.TID 0000.0001) %MON g__extforcing_g_fu_sd        =   0.0000000000000E+00
(PID.TID 0000.0001) %MON g__extforcing_g_fu_del2      =   0.0000000000000E+00
(PID.TID 0000.0001) %MON g__extforcing_g_fv_max       =   0.0000000000000E+00
(PID.TID 0000.0001) %MON g__extforcing_g_fv_min       =   0.0000000000000E+00
(PID.TID 0000.0001) %MON g__extforcing_g_fv_mean      =   0.0000000000000E+00
(PID.TID 0000.0001) %MON g__extforcing_g_fv_sd        =   0.0000000000000E+00
(PID.TID 0000.0001) %MON g__extforcing_g_fv_del2      =   0.0000000000000E+00
(PID.TID 0000.0001) %MON g__g_vcfl_g_uvel_max         =   4.2277344671515E-05
(PID.TID 0000.0001) %MON g__g_vcfl_g_vvel_max         =   3.5111930698013E-05
(PID.TID 0000.0001) %MON g__g_vcfl_g_wvel_max         =   6.0955992053275E-05
(PID.TID 0000.0001) %MON g__g_vcfl_g_W_hf_max         =   1.4629438092786E-04
(PID.TID 0000.0001) // =======================================================
(PID.TID 0000.0001) // End MONITOR dynamic field statistics
(PID.TID 0000.0001) // =======================================================
 cg2d: Sum(rhs),rhsMax =   5.38676872141907E-12  1.17667267036751E-02
 cg2d: Sum(rhs),rhsMax =   3.82306686308453E-12  8.02199626746563E+00
(PID.TID 0000.0001) // =======================================================
(PID.TID 0000.0001) // Begin MONITOR dynamic field statistics
(PID.TID 0000.0001) // =======================================================
(PID.TID 0000.0001) %MON g__time_tsnumber             =                    85
(PID.TID 0000.0001) %MON g__time_secondsf             =   3.6720000000000E+06
(PID.TID 0000.0001) %MON g__dynstat_g_eta_max         =   3.5573062375834E-03
(PID.TID 0000.0001) %MON g__dynstat_g_eta_min         =  -3.4799602310157E-05
(PID.TID 0000.0001) %MON g__dynstat_g_eta_mean        =  -4.0269045909484E-18
(PID.TID 0000.0001) %MON g__dynstat_g_eta_sd          =   4.5099385155990E-05
(PID.TID 0000.0001) %MON g__dynstat_g_eta_del2        =   1.6011563630529E-06
(PID.TID 0000.0001) %MON g__dynstat_g_uvel_max        =   1.2437826490058E-04
(PID.TID 0000.0001) %MON g__dynstat_g_uvel_min        =  -6.8171248712505E-05
(PID.TID 0000.0001) %MON g__dynstat_g_uvel_mean       =   1.5107037859854E-09
(PID.TID 0000.0001) %MON g__dynstat_g_uvel_sd         =   3.3579636483525E-07
(PID.TID 0000.0001) %MON g__dynstat_g_uvel_del2       =   4.3885417512925E-08
(PID.TID 0000.0001) %MON g__dynstat_g_vvel_max        =   3.6247943541308E-04
(PID.TID 0000.0001) %MON g__dynstat_g_vvel_min        =  -7.9609708544729E-05
(PID.TID 0000.0001) %MON g__dynstat_g_vvel_mean       =   5.4122938287172E-09
(PID.TID 0000.0001) %MON g__dynstat_g_vvel_sd         =   8.6646796541147E-07
(PID.TID 0000.0001) %MON g__dynstat_g_vvel_del2       =   5.3437331481713E-08
(PID.TID 0000.0001) %MON g__dynstat_g_wvel_max        =   9.6127422666742E-08
(PID.TID 0000.0001) %MON g__dynstat_g_wvel_min        =  -3.2641453748189E-08
(PID.TID 0000.0001) %MON g__dynstat_g_wvel_mean       =  -3.4473982299843E-28
(PID.TID 0000.0001) %MON g__dynstat_g_wvel_sd         =   4.6297947678975E-10
(PID.TID 0000.0001) %MON g__dynstat_g_wvel_del2       =   8.4555301688998E-11
(PID.TID 0000.0001) %MON g__dynstat_g_theta_max       =   5.6912859318805E-01
(PID.TID 0000.0001) %MON g__dynstat_g_theta_min       =  -4.7245041847845E-04
(PID.TID 0000.0001) %MON g__dynstat_g_theta_mean      =   2.7312395921464E-06
(PID.TID 0000.0001) %MON g__dynstat_g_theta_sd        =   9.3802585795579E-04
(PID.TID 0000.0001) %MON g__dynstat_g_theta_del2      =   2.6333285120492E-05
(PID.TID 0000.0001) %MON g__dynstat_g_salt_max        =   8.7641368140173E-03
(PID.TID 0000.0001) %MON g__dynstat_g_salt_min        =  -7.3950884852794E-03
(PID.TID 0000.0001) %MON g__dynstat_g_salt_mean       =   5.3994776895063E-09
(PID.TID 0000.0001) %MON g__dynstat_g_salt_sd         =   1.6686779399033E-05
(PID.TID 0000.0001) %MON g__dynstat_g_salt_del2       =   8.4272849824633E-07
(PID.TID 0000.0001) %MON g__dynstat_g_sst_max         =   5.6912859318805E-01
(PID.TID 0000.0001) %MON g__dynstat_g_sst_min         =  -1.1083974663362E-04
(PID.TID 0000.0001) %MON g__dynstat_g_sst_mean        =   1.0960064456309E-04
(PID.TID 0000.0001) %MON g__dynstat_g_sst_sd          =   7.2216303455332E-03
(PID.TID 0000.0001) %MON g__dynstat_g_sst_del2        =   2.2530158381444E-04
(PID.TID 0000.0001) %MON g__dynstat_g_sss_max         =   8.7641368140173E-03
(PID.TID 0000.0001) %MON g__dynstat_g_sss_min         =  -7.3950884852794E-03
(PID.TID 0000.0001) %MON g__dynstat_g_sss_mean        =   5.9910507964055E-07
(PID.TID 0000.0001) %MON g__dynstat_g_sss_sd          =   1.4513815684979E-04
(PID.TID 0000.0001) %MON g__dynstat_g_sss_del2        =   9.1260368157882E-06
(PID.TID 0000.0001) %MON g__extforcing_g_qnet_max     =   0.0000000000000E+00
(PID.TID 0000.0001) %MON g__extforcing_g_qnet_min     =   0.0000000000000E+00
(PID.TID 0000.0001) %MON g__extforcing_g_qnet_mean    =   0.0000000000000E+00
(PID.TID 0000.0001) %MON g__extforcing_g_qnet_sd      =   0.0000000000000E+00
(PID.TID 0000.0001) %MON g__extforcing_g_qnet_del2    =   0.0000000000000E+00
(PID.TID 0000.0001) %MON g__extforcing_g_empmr_max    =   0.0000000000000E+00
(PID.TID 0000.0001) %MON g__extforcing_g_empmr_min    =   0.0000000000000E+00
(PID.TID 0000.0001) %MON g__extforcing_g_empmr_mean   =   0.0000000000000E+00
(PID.TID 0000.0001) %MON g__extforcing_g_empmr_sd     =   0.0000000000000E+00
(PID.TID 0000.0001) %MON g__extforcing_g_empmr_del2   =   0.0000000000000E+00
(PID.TID 0000.0001) %MON g__extforcing_g_fu_max       =   0.0000000000000E+00
(PID.TID 0000.0001) %MON g__extforcing_g_fu_min       =   0.0000000000000E+00
(PID.TID 0000.0001) %MON g__extforcing_g_fu_mean      =   0.0000000000000E+00
(PID.TID 0000.0001) %MON g__extforcing_g_fu_sd        =   0.0000000000000E+00
(PID.TID 0000.0001) %MON g__extforcing_g_fu_del2      =   0.0000000000000E+00
(PID.TID 0000.0001) %MON g__extforcing_g_fv_max       =   0.0000000000000E+00
(PID.TID 0000.0001) %MON g__extforcing_g_fv_min       =   0.0000000000000E+00
(PID.TID 0000.0001) %MON g__extforcing_g_fv_mean      =   0.0000000000000E+00
(PID.TID 0000.0001) %MON g__extforcing_g_fv_sd        =   0.0000000000000E+00
(PID.TID 0000.0001) %MON g__extforcing_g_fv_del2      =   0.0000000000000E+00
(PID.TID 0000.0001) %MON g__g_vcfl_g_uvel_max         =   4.3834229237566E-05
(PID.TID 0000.0001) %MON g__g_vcfl_g_vvel_max         =   3.5211970414773E-05
(PID.TID 0000.0001) %MON g__g_vcfl_g_wvel_max         =   6.0604660326472E-05
(PID.TID 0000.0001) %MON g__g_vcfl_g_W_hf_max         =   1.4545118478353E-04
(PID.TID 0000.0001) // =======================================================
(PID.TID 0000.0001) // End MONITOR dynamic field statistics
(PID.TID 0000.0001) // =======================================================
 cg2d: Sum(rhs),rhsMax =   5.38170818787372E-12  1.17737059813862E-02
 cg2d: Sum(rhs),rhsMax =   3.63661878388655E-12  7.98965232758878E+00
(PID.TID 0000.0001) // =======================================================
(PID.TID 0000.0001) // Begin MONITOR dynamic field statistics
(PID.TID 0000.0001) // =======================================================
(PID.TID 0000.0001) %MON g__time_tsnumber             =                    86
(PID.TID 0000.0001) %MON g__time_secondsf             =   3.7152000000000E+06
(PID.TID 0000.0001) %MON g__dynstat_g_eta_max         =   3.5599427613070E-03
(PID.TID 0000.0001) %MON g__dynstat_g_eta_min         =  -3.3482842843270E-05
(PID.TID 0000.0001) %MON g__dynstat_g_eta_mean        =  -4.0176595372417E-18
(PID.TID 0000.0001) %MON g__dynstat_g_eta_sd          =   4.5134577895688E-05
(PID.TID 0000.0001) %MON g__dynstat_g_eta_del2        =   1.6029059609316E-06
(PID.TID 0000.0001) %MON g__dynstat_g_uvel_max        =   1.2557800199485E-04
(PID.TID 0000.0001) %MON g__dynstat_g_uvel_min        =  -6.8954151333514E-05
(PID.TID 0000.0001) %MON g__dynstat_g_uvel_mean       =   1.2675791740765E-10
(PID.TID 0000.0001) %MON g__dynstat_g_uvel_sd         =   3.4376080546203E-07
(PID.TID 0000.0001) %MON g__dynstat_g_uvel_del2       =   4.4360196655962E-08
(PID.TID 0000.0001) %MON g__dynstat_g_vvel_max        =   3.6331207512993E-04
(PID.TID 0000.0001) %MON g__dynstat_g_vvel_min        =  -7.9526856176873E-05
(PID.TID 0000.0001) %MON g__dynstat_g_vvel_mean       =   4.2758699925131E-09
(PID.TID 0000.0001) %MON g__dynstat_g_vvel_sd         =   8.6734285812516E-07
(PID.TID 0000.0001) %MON g__dynstat_g_vvel_del2       =   5.2847375331796E-08
(PID.TID 0000.0001) %MON g__dynstat_g_wvel_max        =   9.4679409337128E-08
(PID.TID 0000.0001) %MON g__dynstat_g_wvel_min        =  -3.2222467707364E-08
(PID.TID 0000.0001) %MON g__dynstat_g_wvel_mean       =   7.4337805487174E-28
(PID.TID 0000.0001) %MON g__dynstat_g_wvel_sd         =   4.6569863154586E-10
(PID.TID 0000.0001) %MON g__dynstat_g_wvel_del2       =   8.3881110794147E-11
(PID.TID 0000.0001) %MON g__dynstat_g_theta_max       =   5.6492887523902E-01
(PID.TID 0000.0001) %MON g__dynstat_g_theta_min       =  -4.7968893261914E-04
(PID.TID 0000.0001) %MON g__dynstat_g_theta_mean      =   2.7358861354288E-06
(PID.TID 0000.0001) %MON g__dynstat_g_theta_sd        =   9.3450248327256E-04
(PID.TID 0000.0001) %MON g__dynstat_g_theta_del2      =   2.6265835676853E-05
(PID.TID 0000.0001) %MON g__dynstat_g_salt_max        =   8.8263395898353E-03
(PID.TID 0000.0001) %MON g__dynstat_g_salt_min        =  -7.4457674620813E-03
(PID.TID 0000.0001) %MON g__dynstat_g_salt_mean       =   5.4505121198070E-09
(PID.TID 0000.0001) %MON g__dynstat_g_salt_sd         =   1.6809565026674E-05
(PID.TID 0000.0001) %MON g__dynstat_g_salt_del2       =   8.5117134463189E-07
(PID.TID 0000.0001) %MON g__dynstat_g_sst_max         =   5.6492887523902E-01
(PID.TID 0000.0001) %MON g__dynstat_g_sst_min         =  -1.1294619636146E-04
(PID.TID 0000.0001) %MON g__dynstat_g_sst_mean        =   1.0892341111394E-04
(PID.TID 0000.0001) %MON g__dynstat_g_sst_sd          =   7.1692952196638E-03
(PID.TID 0000.0001) %MON g__dynstat_g_sst_del2        =   2.2353890458828E-04
(PID.TID 0000.0001) %MON g__dynstat_g_sss_max         =   8.8263395898353E-03
(PID.TID 0000.0001) %MON g__dynstat_g_sss_min         =  -7.4457674620813E-03
(PID.TID 0000.0001) %MON g__dynstat_g_sss_mean        =   6.0737635620164E-07
(PID.TID 0000.0001) %MON g__dynstat_g_sss_sd          =   1.4617470040339E-04
(PID.TID 0000.0001) %MON g__dynstat_g_sss_del2        =   9.1868242328443E-06
(PID.TID 0000.0001) %MON g__extforcing_g_qnet_max     =   0.0000000000000E+00
(PID.TID 0000.0001) %MON g__extforcing_g_qnet_min     =   0.0000000000000E+00
(PID.TID 0000.0001) %MON g__extforcing_g_qnet_mean    =   0.0000000000000E+00
(PID.TID 0000.0001) %MON g__extforcing_g_qnet_sd      =   0.0000000000000E+00
(PID.TID 0000.0001) %MON g__extforcing_g_qnet_del2    =   0.0000000000000E+00
(PID.TID 0000.0001) %MON g__extforcing_g_empmr_max    =   0.0000000000000E+00
(PID.TID 0000.0001) %MON g__extforcing_g_empmr_min    =   0.0000000000000E+00
(PID.TID 0000.0001) %MON g__extforcing_g_empmr_mean   =   0.0000000000000E+00
(PID.TID 0000.0001) %MON g__extforcing_g_empmr_sd     =   0.0000000000000E+00
(PID.TID 0000.0001) %MON g__extforcing_g_empmr_del2   =   0.0000000000000E+00
(PID.TID 0000.0001) %MON g__extforcing_g_fu_max       =   0.0000000000000E+00
(PID.TID 0000.0001) %MON g__extforcing_g_fu_min       =   0.0000000000000E+00
(PID.TID 0000.0001) %MON g__extforcing_g_fu_mean      =   0.0000000000000E+00
(PID.TID 0000.0001) %MON g__extforcing_g_fu_sd        =   0.0000000000000E+00
(PID.TID 0000.0001) %MON g__extforcing_g_fu_del2      =   0.0000000000000E+00
(PID.TID 0000.0001) %MON g__extforcing_g_fv_max       =   0.0000000000000E+00
(PID.TID 0000.0001) %MON g__extforcing_g_fv_min       =   0.0000000000000E+00
(PID.TID 0000.0001) %MON g__extforcing_g_fv_mean      =   0.0000000000000E+00
(PID.TID 0000.0001) %MON g__extforcing_g_fv_sd        =   0.0000000000000E+00
(PID.TID 0000.0001) %MON g__extforcing_g_fv_del2      =   0.0000000000000E+00
(PID.TID 0000.0001) %MON g__g_vcfl_g_uvel_max         =   4.4257048697682E-05
(PID.TID 0000.0001) %MON g__g_vcfl_g_vvel_max         =   3.5292854686298E-05
(PID.TID 0000.0001) %MON g__g_vcfl_g_wvel_max         =   5.9566253112812E-05
(PID.TID 0000.0001) %MON g__g_vcfl_g_W_hf_max         =   1.4295900747075E-04
(PID.TID 0000.0001) // =======================================================
(PID.TID 0000.0001) // End MONITOR dynamic field statistics
(PID.TID 0000.0001) // =======================================================
 cg2d: Sum(rhs),rhsMax =   5.36642631801847E-12  1.17846451985523E-02
 cg2d: Sum(rhs),rhsMax =   4.57288373834075E-12  7.95826434668650E+00
(PID.TID 0000.0001) // =======================================================
(PID.TID 0000.0001) // Begin MONITOR dynamic field statistics
(PID.TID 0000.0001) // =======================================================
(PID.TID 0000.0001) %MON g__time_tsnumber             =                    87
(PID.TID 0000.0001) %MON g__time_secondsf             =   3.7584000000000E+06
(PID.TID 0000.0001) %MON g__dynstat_g_eta_max         =   3.5638358568959E-03
(PID.TID 0000.0001) %MON g__dynstat_g_eta_min         =  -3.1953365189431E-05
(PID.TID 0000.0001) %MON g__dynstat_g_eta_mean        =  -4.0075851572355E-18
(PID.TID 0000.0001) %MON g__dynstat_g_eta_sd          =   4.5185720801525E-05
(PID.TID 0000.0001) %MON g__dynstat_g_eta_del2        =   1.6041699917973E-06
(PID.TID 0000.0001) %MON g__dynstat_g_uvel_max        =   1.2366652132759E-04
(PID.TID 0000.0001) %MON g__dynstat_g_uvel_min        =  -6.9856044862180E-05
(PID.TID 0000.0001) %MON g__dynstat_g_uvel_mean       =  -8.1331777100174E-10
(PID.TID 0000.0001) %MON g__dynstat_g_uvel_sd         =   3.4656249637863E-07
(PID.TID 0000.0001) %MON g__dynstat_g_uvel_del2       =   4.4638459034594E-08
(PID.TID 0000.0001) %MON g__dynstat_g_vvel_max        =   3.6397696191014E-04
(PID.TID 0000.0001) %MON g__dynstat_g_vvel_min        =  -7.9130116081368E-05
(PID.TID 0000.0001) %MON g__dynstat_g_vvel_mean       =   2.9066387484677E-09
(PID.TID 0000.0001) %MON g__dynstat_g_vvel_sd         =   8.6849853322255E-07
(PID.TID 0000.0001) %MON g__dynstat_g_vvel_del2       =   5.2389671544628E-08
(PID.TID 0000.0001) %MON g__dynstat_g_wvel_max        =   9.2271784289833E-08
(PID.TID 0000.0001) %MON g__dynstat_g_wvel_min        =  -3.1921071469443E-08
(PID.TID 0000.0001) %MON g__dynstat_g_wvel_mean       =   1.3287357746330E-27
(PID.TID 0000.0001) %MON g__dynstat_g_wvel_sd         =   4.6539704135326E-10
(PID.TID 0000.0001) %MON g__dynstat_g_wvel_del2       =   8.3299750930522E-11
(PID.TID 0000.0001) %MON g__dynstat_g_theta_max       =   5.6080142317576E-01
(PID.TID 0000.0001) %MON g__dynstat_g_theta_min       =  -4.8675901489943E-04
(PID.TID 0000.0001) %MON g__dynstat_g_theta_mean      =   2.7416310373439E-06
(PID.TID 0000.0001) %MON g__dynstat_g_theta_sd        =   9.3115359294787E-04
(PID.TID 0000.0001) %MON g__dynstat_g_theta_del2      =   2.6202784412753E-05
(PID.TID 0000.0001) %MON g__dynstat_g_salt_max        =   8.8880759943452E-03
(PID.TID 0000.0001) %MON g__dynstat_g_salt_min        =  -7.4968677706310E-03
(PID.TID 0000.0001) %MON g__dynstat_g_salt_mean       =   5.4680348068074E-09
(PID.TID 0000.0001) %MON g__dynstat_g_salt_sd         =   1.6932879225033E-05
(PID.TID 0000.0001) %MON g__dynstat_g_salt_del2       =   8.5966829127293E-07
(PID.TID 0000.0001) %MON g__dynstat_g_sst_max         =   5.6080142317576E-01
(PID.TID 0000.0001) %MON g__dynstat_g_sst_min         =  -1.1474798717473E-04
(PID.TID 0000.0001) %MON g__dynstat_g_sst_mean        =   1.0826106167877E-04
(PID.TID 0000.0001) %MON g__dynstat_g_sst_sd          =   7.1178682773893E-03
(PID.TID 0000.0001) %MON g__dynstat_g_sst_del2        =   2.2180818057173E-04
(PID.TID 0000.0001) %MON g__dynstat_g_sss_max         =   8.8880759943452E-03
(PID.TID 0000.0001) %MON g__dynstat_g_sss_min         =  -7.4968677706310E-03
(PID.TID 0000.0001) %MON g__dynstat_g_sss_mean        =   6.1529705959628E-07
(PID.TID 0000.0001) %MON g__dynstat_g_sss_sd          =   1.4721181023431E-04
(PID.TID 0000.0001) %MON g__dynstat_g_sss_del2        =   9.2476108837690E-06
(PID.TID 0000.0001) %MON g__extforcing_g_qnet_max     =   0.0000000000000E+00
(PID.TID 0000.0001) %MON g__extforcing_g_qnet_min     =   0.0000000000000E+00
(PID.TID 0000.0001) %MON g__extforcing_g_qnet_mean    =   0.0000000000000E+00
(PID.TID 0000.0001) %MON g__extforcing_g_qnet_sd      =   0.0000000000000E+00
(PID.TID 0000.0001) %MON g__extforcing_g_qnet_del2    =   0.0000000000000E+00
(PID.TID 0000.0001) %MON g__extforcing_g_empmr_max    =   0.0000000000000E+00
(PID.TID 0000.0001) %MON g__extforcing_g_empmr_min    =   0.0000000000000E+00
(PID.TID 0000.0001) %MON g__extforcing_g_empmr_mean   =   0.0000000000000E+00
(PID.TID 0000.0001) %MON g__extforcing_g_empmr_sd     =   0.0000000000000E+00
(PID.TID 0000.0001) %MON g__extforcing_g_empmr_del2   =   0.0000000000000E+00
(PID.TID 0000.0001) %MON g__extforcing_g_fu_max       =   0.0000000000000E+00
(PID.TID 0000.0001) %MON g__extforcing_g_fu_min       =   0.0000000000000E+00
(PID.TID 0000.0001) %MON g__extforcing_g_fu_mean      =   0.0000000000000E+00
(PID.TID 0000.0001) %MON g__extforcing_g_fu_sd        =   0.0000000000000E+00
(PID.TID 0000.0001) %MON g__extforcing_g_fu_del2      =   0.0000000000000E+00
(PID.TID 0000.0001) %MON g__extforcing_g_fv_max       =   0.0000000000000E+00
(PID.TID 0000.0001) %MON g__extforcing_g_fv_min       =   0.0000000000000E+00
(PID.TID 0000.0001) %MON g__extforcing_g_fv_mean      =   0.0000000000000E+00
(PID.TID 0000.0001) %MON g__extforcing_g_fv_sd        =   0.0000000000000E+00
(PID.TID 0000.0001) %MON g__extforcing_g_fv_del2      =   0.0000000000000E+00
(PID.TID 0000.0001) %MON g__g_vcfl_g_uvel_max         =   4.3583391754332E-05
(PID.TID 0000.0001) %MON g__g_vcfl_g_vvel_max         =   3.5357443105245E-05
(PID.TID 0000.0001) %MON g__g_vcfl_g_wvel_max         =   5.7886209385539E-05
(PID.TID 0000.0001) %MON g__g_vcfl_g_W_hf_max         =   1.3892690252529E-04
(PID.TID 0000.0001) // =======================================================
(PID.TID 0000.0001) // End MONITOR dynamic field statistics
(PID.TID 0000.0001) // =======================================================
 cg2d: Sum(rhs),rhsMax =   5.34787845831344E-12  1.17956206647154E-02
 cg2d: Sum(rhs),rhsMax =   4.17173240396806E-12  7.92999023840165E+00
(PID.TID 0000.0001) // =======================================================
(PID.TID 0000.0001) // Begin MONITOR dynamic field statistics
(PID.TID 0000.0001) // =======================================================
(PID.TID 0000.0001) %MON g__time_tsnumber             =                    88
(PID.TID 0000.0001) %MON g__time_secondsf             =   3.8016000000000E+06
(PID.TID 0000.0001) %MON g__dynstat_g_eta_max         =   3.5677281909609E-03
(PID.TID 0000.0001) %MON g__dynstat_g_eta_min         =  -3.0386802614529E-05
(PID.TID 0000.0001) %MON g__dynstat_g_eta_mean        =  -4.0024166053810E-18
(PID.TID 0000.0001) %MON g__dynstat_g_eta_sd          =   4.5236475479853E-05
(PID.TID 0000.0001) %MON g__dynstat_g_eta_del2        =   1.6043503415552E-06
(PID.TID 0000.0001) %MON g__dynstat_g_uvel_max        =   1.1880870239293E-04
(PID.TID 0000.0001) %MON g__dynstat_g_uvel_min        =  -7.0869004406824E-05
(PID.TID 0000.0001) %MON g__dynstat_g_uvel_mean       =  -1.2860676429048E-09
(PID.TID 0000.0001) %MON g__dynstat_g_uvel_sd         =   3.4421316349443E-07
(PID.TID 0000.0001) %MON g__dynstat_g_uvel_del2       =   4.4807775913430E-08
(PID.TID 0000.0001) %MON g__dynstat_g_vvel_max        =   3.6449528019819E-04
(PID.TID 0000.0001) %MON g__dynstat_g_vvel_min        =  -7.8437312264248E-05
(PID.TID 0000.0001) %MON g__dynstat_g_vvel_mean       =   1.3358133790090E-09
(PID.TID 0000.0001) %MON g__dynstat_g_vvel_sd         =   8.6990715413268E-07
(PID.TID 0000.0001) %MON g__dynstat_g_vvel_del2       =   5.2253231431892E-08
(PID.TID 0000.0001) %MON g__dynstat_g_wvel_max        =   8.9044373815785E-08
(PID.TID 0000.0001) %MON g__dynstat_g_wvel_min        =  -3.1867974661391E-08
(PID.TID 0000.0001) %MON g__dynstat_g_wvel_mean       =   1.1647656151663E-27
(PID.TID 0000.0001) %MON g__dynstat_g_wvel_sd         =   4.6200911630825E-10
(PID.TID 0000.0001) %MON g__dynstat_g_wvel_del2       =   8.2852571215094E-11
(PID.TID 0000.0001) %MON g__dynstat_g_theta_max       =   5.5668136193597E-01
(PID.TID 0000.0001) %MON g__dynstat_g_theta_min       =  -4.9369383266749E-04
(PID.TID 0000.0001) %MON g__dynstat_g_theta_mean      =   2.7479957359195E-06
(PID.TID 0000.0001) %MON g__dynstat_g_theta_sd        =   9.2783972797963E-04
(PID.TID 0000.0001) %MON g__dynstat_g_theta_del2      =   2.6138575376405E-05
(PID.TID 0000.0001) %MON g__dynstat_g_salt_max        =   8.9478067888163E-03
(PID.TID 0000.0001) %MON g__dynstat_g_salt_min        =  -7.5470145271744E-03
(PID.TID 0000.0001) %MON g__dynstat_g_salt_mean       =   5.4631654161330E-09
(PID.TID 0000.0001) %MON g__dynstat_g_salt_sd         =   1.7053638509169E-05
(PID.TID 0000.0001) %MON g__dynstat_g_salt_del2       =   8.6789658516064E-07
(PID.TID 0000.0001) %MON g__dynstat_g_sst_max         =   5.5668136193597E-01
(PID.TID 0000.0001) %MON g__dynstat_g_sst_min         =  -1.1619653614565E-04
(PID.TID 0000.0001) %MON g__dynstat_g_sst_mean        =   1.0760529784508E-04
(PID.TID 0000.0001) %MON g__dynstat_g_sst_sd          =   7.0665211714488E-03
(PID.TID 0000.0001) %MON g__dynstat_g_sst_del2        =   2.2007857071609E-04
(PID.TID 0000.0001) %MON g__dynstat_g_sss_max         =   8.9478067888163E-03
(PID.TID 0000.0001) %MON g__dynstat_g_sss_min         =  -7.5470145271744E-03
(PID.TID 0000.0001) %MON g__dynstat_g_sss_mean        =   6.2364111054682E-07
(PID.TID 0000.0001) %MON g__dynstat_g_sss_sd          =   1.4822310360021E-04
(PID.TID 0000.0001) %MON g__dynstat_g_sss_del2        =   9.3063738997755E-06
(PID.TID 0000.0001) %MON g__extforcing_g_qnet_max     =   0.0000000000000E+00
(PID.TID 0000.0001) %MON g__extforcing_g_qnet_min     =   0.0000000000000E+00
(PID.TID 0000.0001) %MON g__extforcing_g_qnet_mean    =   0.0000000000000E+00
(PID.TID 0000.0001) %MON g__extforcing_g_qnet_sd      =   0.0000000000000E+00
(PID.TID 0000.0001) %MON g__extforcing_g_qnet_del2    =   0.0000000000000E+00
(PID.TID 0000.0001) %MON g__extforcing_g_empmr_max    =   0.0000000000000E+00
(PID.TID 0000.0001) %MON g__extforcing_g_empmr_min    =   0.0000000000000E+00
(PID.TID 0000.0001) %MON g__extforcing_g_empmr_mean   =   0.0000000000000E+00
(PID.TID 0000.0001) %MON g__extforcing_g_empmr_sd     =   0.0000000000000E+00
(PID.TID 0000.0001) %MON g__extforcing_g_empmr_del2   =   0.0000000000000E+00
(PID.TID 0000.0001) %MON g__extforcing_g_fu_max       =   0.0000000000000E+00
(PID.TID 0000.0001) %MON g__extforcing_g_fu_min       =   0.0000000000000E+00
(PID.TID 0000.0001) %MON g__extforcing_g_fu_mean      =   0.0000000000000E+00
(PID.TID 0000.0001) %MON g__extforcing_g_fu_sd        =   0.0000000000000E+00
(PID.TID 0000.0001) %MON g__extforcing_g_fu_del2      =   0.0000000000000E+00
(PID.TID 0000.0001) %MON g__extforcing_g_fv_max       =   0.0000000000000E+00
(PID.TID 0000.0001) %MON g__extforcing_g_fv_min       =   0.0000000000000E+00
(PID.TID 0000.0001) %MON g__extforcing_g_fv_mean      =   0.0000000000000E+00
(PID.TID 0000.0001) %MON g__extforcing_g_fv_sd        =   0.0000000000000E+00
(PID.TID 0000.0001) %MON g__extforcing_g_fv_del2      =   0.0000000000000E+00
(PID.TID 0000.0001) %MON g__g_vcfl_g_uvel_max         =   4.1871366353859E-05
(PID.TID 0000.0001) %MON g__g_vcfl_g_vvel_max         =   3.5407793570515E-05
(PID.TID 0000.0001) %MON g__g_vcfl_g_wvel_max         =   5.5647925045235E-05
(PID.TID 0000.0001) %MON g__g_vcfl_g_W_hf_max         =   1.3355502010856E-04
(PID.TID 0000.0001) // =======================================================
(PID.TID 0000.0001) // End MONITOR dynamic field statistics
(PID.TID 0000.0001) // =======================================================
 cg2d: Sum(rhs),rhsMax =   5.33753835400830E-12  1.18030552063417E-02
 cg2d: Sum(rhs),rhsMax =   3.87966048176480E-12  7.90697486204087E+00
(PID.TID 0000.0001) // =======================================================
(PID.TID 0000.0001) // Begin MONITOR dynamic field statistics
(PID.TID 0000.0001) // =======================================================
(PID.TID 0000.0001) %MON g__time_tsnumber             =                    89
(PID.TID 0000.0001) %MON g__time_secondsf             =   3.8448000000000E+06
(PID.TID 0000.0001) %MON g__dynstat_g_eta_max         =   3.5704736127567E-03
(PID.TID 0000.0001) %MON g__dynstat_g_eta_min         =  -2.8949621244435E-05
(PID.TID 0000.0001) %MON g__dynstat_g_eta_mean        =  -3.5469422630157E-18
(PID.TID 0000.0001) %MON g__dynstat_g_eta_sd          =   4.5272038098269E-05
(PID.TID 0000.0001) %MON g__dynstat_g_eta_del2        =   1.6030440798342E-06
(PID.TID 0000.0001) %MON g__dynstat_g_uvel_max        =   1.1122251031065E-04
(PID.TID 0000.0001) %MON g__dynstat_g_uvel_min        =  -7.1977451750842E-05
(PID.TID 0000.0001) %MON g__dynstat_g_uvel_mean       =  -1.2898198407482E-09
(PID.TID 0000.0001) %MON g__dynstat_g_uvel_sd         =   3.3712574366454E-07
(PID.TID 0000.0001) %MON g__dynstat_g_uvel_del2       =   4.4800682943004E-08
(PID.TID 0000.0001) %MON g__dynstat_g_vvel_max        =   3.6487794951855E-04
(PID.TID 0000.0001) %MON g__dynstat_g_vvel_min        =  -7.7480421943688E-05
(PID.TID 0000.0001) %MON g__dynstat_g_vvel_mean       =  -3.9602525380680E-10
(PID.TID 0000.0001) %MON g__dynstat_g_vvel_sd         =   8.7147520474122E-07
(PID.TID 0000.0001) %MON g__dynstat_g_vvel_del2       =   5.2224186417674E-08
(PID.TID 0000.0001) %MON g__dynstat_g_wvel_max        =   8.5178468521810E-08
(PID.TID 0000.0001) %MON g__dynstat_g_wvel_min        =  -3.1881317919675E-08
(PID.TID 0000.0001) %MON g__dynstat_g_wvel_mean       =   4.5594904001137E-28
(PID.TID 0000.0001) %MON g__dynstat_g_wvel_sd         =   4.5568219722769E-10
(PID.TID 0000.0001) %MON g__dynstat_g_wvel_del2       =   8.2551037270872E-11
(PID.TID 0000.0001) %MON g__dynstat_g_theta_max       =   5.5251241645959E-01
(PID.TID 0000.0001) %MON g__dynstat_g_theta_min       =  -5.0053701600447E-04
(PID.TID 0000.0001) %MON g__dynstat_g_theta_mean      =   2.7545137961942E-06
(PID.TID 0000.0001) %MON g__dynstat_g_theta_sd        =   9.2443588349048E-04
(PID.TID 0000.0001) %MON g__dynstat_g_theta_del2      =   2.6070371694230E-05
(PID.TID 0000.0001) %MON g__dynstat_g_salt_max        =   9.0041448884124E-03
(PID.TID 0000.0001) %MON g__dynstat_g_salt_min        =  -7.5949147713363E-03
(PID.TID 0000.0001) %MON g__dynstat_g_salt_mean       =   5.4477760871320E-09
(PID.TID 0000.0001) %MON g__dynstat_g_salt_sd         =   1.7168962702508E-05
(PID.TID 0000.0001) %MON g__dynstat_g_salt_del2       =   8.7576778179814E-07
(PID.TID 0000.0001) %MON g__dynstat_g_sst_max         =   5.5251241645959E-01
(PID.TID 0000.0001) %MON g__dynstat_g_sst_min         =  -1.1723874850546E-04
(PID.TID 0000.0001) %MON g__dynstat_g_sst_mean        =   1.0693420342040E-04
(PID.TID 0000.0001) %MON g__dynstat_g_sst_sd          =   7.0145345770971E-03
(PID.TID 0000.0001) %MON g__dynstat_g_sst_del2        =   2.1833446651672E-04
(PID.TID 0000.0001) %MON g__dynstat_g_sss_max         =   9.0041448884124E-03
(PID.TID 0000.0001) %MON g__dynstat_g_sss_min         =  -7.5949147713363E-03
(PID.TID 0000.0001) %MON g__dynstat_g_sss_mean        =   6.3082691034544E-07
(PID.TID 0000.0001) %MON g__dynstat_g_sss_sd          =   1.4918427926500E-04
(PID.TID 0000.0001) %MON g__dynstat_g_sss_del2        =   9.3622330402708E-06
(PID.TID 0000.0001) %MON g__extforcing_g_qnet_max     =   0.0000000000000E+00
(PID.TID 0000.0001) %MON g__extforcing_g_qnet_min     =   0.0000000000000E+00
(PID.TID 0000.0001) %MON g__extforcing_g_qnet_mean    =   0.0000000000000E+00
(PID.TID 0000.0001) %MON g__extforcing_g_qnet_sd      =   0.0000000000000E+00
(PID.TID 0000.0001) %MON g__extforcing_g_qnet_del2    =   0.0000000000000E+00
(PID.TID 0000.0001) %MON g__extforcing_g_empmr_max    =   0.0000000000000E+00
(PID.TID 0000.0001) %MON g__extforcing_g_empmr_min    =   0.0000000000000E+00
(PID.TID 0000.0001) %MON g__extforcing_g_empmr_mean   =   0.0000000000000E+00
(PID.TID 0000.0001) %MON g__extforcing_g_empmr_sd     =   0.0000000000000E+00
(PID.TID 0000.0001) %MON g__extforcing_g_empmr_del2   =   0.0000000000000E+00
(PID.TID 0000.0001) %MON g__extforcing_g_fu_max       =   0.0000000000000E+00
(PID.TID 0000.0001) %MON g__extforcing_g_fu_min       =   0.0000000000000E+00
(PID.TID 0000.0001) %MON g__extforcing_g_fu_mean      =   0.0000000000000E+00
(PID.TID 0000.0001) %MON g__extforcing_g_fu_sd        =   0.0000000000000E+00
(PID.TID 0000.0001) %MON g__extforcing_g_fu_del2      =   0.0000000000000E+00
(PID.TID 0000.0001) %MON g__extforcing_g_fv_max       =   0.0000000000000E+00
(PID.TID 0000.0001) %MON g__extforcing_g_fv_min       =   0.0000000000000E+00
(PID.TID 0000.0001) %MON g__extforcing_g_fv_mean      =   0.0000000000000E+00
(PID.TID 0000.0001) %MON g__extforcing_g_fv_sd        =   0.0000000000000E+00
(PID.TID 0000.0001) %MON g__extforcing_g_fv_del2      =   0.0000000000000E+00
(PID.TID 0000.0001) %MON g__g_vcfl_g_uvel_max         =   3.9197789237788E-05
(PID.TID 0000.0001) %MON g__g_vcfl_g_vvel_max         =   3.5444966826349E-05
(PID.TID 0000.0001) %MON g__g_vcfl_g_wvel_max         =   5.2964716962164E-05
(PID.TID 0000.0001) %MON g__g_vcfl_g_W_hf_max         =   1.2711532070919E-04
(PID.TID 0000.0001) // =======================================================
(PID.TID 0000.0001) // End MONITOR dynamic field statistics
(PID.TID 0000.0001) // =======================================================
 cg2d: Sum(rhs),rhsMax =   4.72956628313773E-12  1.18038890905603E-02
 cg2d: Sum(rhs),rhsMax =   3.09212377924695E-12  7.89125112328965E+00
(PID.TID 0000.0001) // =======================================================
(PID.TID 0000.0001) // Begin MONITOR dynamic field statistics
(PID.TID 0000.0001) // =======================================================
(PID.TID 0000.0001) %MON g__time_tsnumber             =                    90
(PID.TID 0000.0001) %MON g__time_secondsf             =   3.8880000000000E+06
(PID.TID 0000.0001) %MON g__dynstat_g_eta_max         =   3.5710939458371E-03
(PID.TID 0000.0001) %MON g__dynstat_g_eta_min         =  -2.7785331550358E-05
(PID.TID 0000.0001) %MON g__dynstat_g_eta_mean        =  -3.5998562171485E-18
(PID.TID 0000.0001) %MON g__dynstat_g_eta_sd          =   4.5279870770778E-05
(PID.TID 0000.0001) %MON g__dynstat_g_eta_del2        =   1.6008728433536E-06
(PID.TID 0000.0001) %MON g__dynstat_g_uvel_max        =   1.0117377984487E-04
(PID.TID 0000.0001) %MON g__dynstat_g_uvel_min        =  -7.3158368305824E-05
(PID.TID 0000.0001) %MON g__dynstat_g_uvel_mean       =  -8.4309379722869E-10
(PID.TID 0000.0001) %MON g__dynstat_g_uvel_sd         =   3.2608358495659E-07
(PID.TID 0000.0001) %MON g__dynstat_g_uvel_del2       =   4.4738616543803E-08
(PID.TID 0000.0001) %MON g__dynstat_g_vvel_max        =   3.6512519794250E-04
(PID.TID 0000.0001) %MON g__dynstat_g_vvel_min        =  -7.6301935660171E-05
(PID.TID 0000.0001) %MON g__dynstat_g_vvel_mean       =  -2.2417145185062E-09
(PID.TID 0000.0001) %MON g__dynstat_g_vvel_sd         =   8.7305566054748E-07
(PID.TID 0000.0001) %MON g__dynstat_g_vvel_del2       =   5.2250512242451E-08
(PID.TID 0000.0001) %MON g__dynstat_g_wvel_max        =   8.0882454501890E-08
(PID.TID 0000.0001) %MON g__dynstat_g_wvel_min        =  -3.1972926403277E-08
(PID.TID 0000.0001) %MON g__dynstat_g_wvel_mean       =  -5.2174709759889E-28
(PID.TID 0000.0001) %MON g__dynstat_g_wvel_sd         =   4.4673062937881E-10
(PID.TID 0000.0001) %MON g__dynstat_g_wvel_del2       =   8.2343495257352E-11
(PID.TID 0000.0001) %MON g__dynstat_g_theta_max       =   5.4824851631221E-01
(PID.TID 0000.0001) %MON g__dynstat_g_theta_min       =  -5.0733875631913E-04
(PID.TID 0000.0001) %MON g__dynstat_g_theta_mean      =   2.7607489462921E-06
(PID.TID 0000.0001) %MON g__dynstat_g_theta_sd        =   9.2083555805964E-04
(PID.TID 0000.0001) %MON g__dynstat_g_theta_del2      =   2.5994733413012E-05
(PID.TID 0000.0001) %MON g__dynstat_g_salt_max        =   9.0559097640258E-03
(PID.TID 0000.0001) %MON g__dynstat_g_salt_min        =  -7.6394100509733E-03
(PID.TID 0000.0001) %MON g__dynstat_g_salt_mean       =   5.4333869833894E-09
(PID.TID 0000.0001) %MON g__dynstat_g_salt_sd         =   1.7276292900387E-05
(PID.TID 0000.0001) %MON g__dynstat_g_salt_del2       =   8.8317071572355E-07
(PID.TID 0000.0001) %MON g__dynstat_g_sst_max         =   5.4824851631221E-01
(PID.TID 0000.0001) %MON g__dynstat_g_sst_min         =  -1.1782285183161E-04
(PID.TID 0000.0001) %MON g__dynstat_g_sst_mean        =   1.0624156094664E-04
(PID.TID 0000.0001) %MON g__dynstat_g_sst_sd          =   6.9613183091937E-03
(PID.TID 0000.0001) %MON g__dynstat_g_sst_del2        =   2.1655565933101E-04
(PID.TID 0000.0001) %MON g__dynstat_g_sss_max         =   9.0559097640258E-03
(PID.TID 0000.0001) %MON g__dynstat_g_sss_min         =  -7.6394100509733E-03
(PID.TID 0000.0001) %MON g__dynstat_g_sss_mean        =   6.3723894021579E-07
(PID.TID 0000.0001) %MON g__dynstat_g_sss_sd          =   1.5007404618096E-04
(PID.TID 0000.0001) %MON g__dynstat_g_sss_del2        =   9.4139797386318E-06
(PID.TID 0000.0001) %MON g__extforcing_g_qnet_max     =   0.0000000000000E+00
(PID.TID 0000.0001) %MON g__extforcing_g_qnet_min     =   0.0000000000000E+00
(PID.TID 0000.0001) %MON g__extforcing_g_qnet_mean    =   0.0000000000000E+00
(PID.TID 0000.0001) %MON g__extforcing_g_qnet_sd      =   0.0000000000000E+00
(PID.TID 0000.0001) %MON g__extforcing_g_qnet_del2    =   0.0000000000000E+00
(PID.TID 0000.0001) %MON g__extforcing_g_empmr_max    =   0.0000000000000E+00
(PID.TID 0000.0001) %MON g__extforcing_g_empmr_min    =   0.0000000000000E+00
(PID.TID 0000.0001) %MON g__extforcing_g_empmr_mean   =   0.0000000000000E+00
(PID.TID 0000.0001) %MON g__extforcing_g_empmr_sd     =   0.0000000000000E+00
(PID.TID 0000.0001) %MON g__extforcing_g_empmr_del2   =   0.0000000000000E+00
(PID.TID 0000.0001) %MON g__extforcing_g_fu_max       =   0.0000000000000E+00
(PID.TID 0000.0001) %MON g__extforcing_g_fu_min       =   0.0000000000000E+00
(PID.TID 0000.0001) %MON g__extforcing_g_fu_mean      =   0.0000000000000E+00
(PID.TID 0000.0001) %MON g__extforcing_g_fu_sd        =   0.0000000000000E+00
(PID.TID 0000.0001) %MON g__extforcing_g_fu_del2      =   0.0000000000000E+00
(PID.TID 0000.0001) %MON g__extforcing_g_fv_max       =   0.0000000000000E+00
(PID.TID 0000.0001) %MON g__extforcing_g_fv_min       =   0.0000000000000E+00
(PID.TID 0000.0001) %MON g__extforcing_g_fv_mean      =   0.0000000000000E+00
(PID.TID 0000.0001) %MON g__extforcing_g_fv_sd        =   0.0000000000000E+00
(PID.TID 0000.0001) %MON g__extforcing_g_fv_del2      =   0.0000000000000E+00
(PID.TID 0000.0001) %MON g__g_vcfl_g_uvel_max         =   3.5656347691425E-05
(PID.TID 0000.0001) %MON g__g_vcfl_g_vvel_max         =   3.5468985028042E-05
(PID.TID 0000.0001) %MON g__g_vcfl_g_wvel_max         =   4.9970326530279E-05
(PID.TID 0000.0001) %MON g__g_vcfl_g_W_hf_max         =   1.1992878367267E-04
(PID.TID 0000.0001) // =======================================================
(PID.TID 0000.0001) // End MONITOR dynamic field statistics
(PID.TID 0000.0001) // =======================================================
(PID.TID 0000.0001)  MDSREADFIELD: opening global file: trenberth_taux.bin
(PID.TID 0000.0001)  MDSREADFIELD: opening global file: trenberth_taux.bin
(PID.TID 0000.0001)  MDSREADFIELD: opening global file: trenberth_tauy.bin
(PID.TID 0000.0001)  MDSREADFIELD: opening global file: trenberth_tauy.bin
(PID.TID 0000.0001)  MDSREADFIELD: opening global file: ncep_qnet.bin
(PID.TID 0000.0001)  MDSREADFIELD: opening global file: ncep_qnet.bin
(PID.TID 0000.0001)  MDSREADFIELD: opening global file: lev_sst.bin
(PID.TID 0000.0001)  MDSREADFIELD: opening global file: lev_sst.bin
(PID.TID 0000.0001)  MDSREADFIELD: opening global file: lev_sss.bin
(PID.TID 0000.0001)  MDSREADFIELD: opening global file: lev_sss.bin
 myIter=  90
(PID.TID 0000.0001) // Model state written, timestep        90
(PID.TID 0000.0001) 
 cg2d: Sum(rhs),rhsMax =   4.80213968743475E-12  1.17956995583319E-02
 cg2d: Sum(rhs),rhsMax =   4.95717356052694E-12  7.88464116714749E+00
(PID.TID 0000.0001) // =======================================================
(PID.TID 0000.0001) // Begin MONITOR dynamic field statistics
(PID.TID 0000.0001) // =======================================================
(PID.TID 0000.0001) %MON g__time_tsnumber             =                    91
(PID.TID 0000.0001) %MON g__time_secondsf             =   3.9312000000000E+06
(PID.TID 0000.0001) %MON g__dynstat_g_eta_max         =   3.5688184382223E-03
(PID.TID 0000.0001) %MON g__dynstat_g_eta_min         =  -2.7004474226986E-05
(PID.TID 0000.0001) %MON g__dynstat_g_eta_mean        =  -3.6535184184084E-18
(PID.TID 0000.0001) %MON g__dynstat_g_eta_sd          =   4.5250189794008E-05
(PID.TID 0000.0001) %MON g__dynstat_g_eta_del2        =   1.5981618965527E-06
(PID.TID 0000.0001) %MON g__dynstat_g_uvel_max        =   8.8970732154116E-05
(PID.TID 0000.0001) %MON g__dynstat_g_uvel_min        =  -7.4382139995873E-05
(PID.TID 0000.0001) %MON g__dynstat_g_uvel_mean       =   1.7340291815564E-11
(PID.TID 0000.0001) %MON g__dynstat_g_uvel_sd         =   3.1223102205547E-07
(PID.TID 0000.0001) %MON g__dynstat_g_uvel_del2       =   4.4479772333170E-08
(PID.TID 0000.0001) %MON g__dynstat_g_vvel_max        =   3.6522747836249E-04
(PID.TID 0000.0001) %MON g__dynstat_g_vvel_min        =  -7.4950914300616E-05
(PID.TID 0000.0001) %MON g__dynstat_g_vvel_mean       =  -4.1509821183580E-09
(PID.TID 0000.0001) %MON g__dynstat_g_vvel_sd         =   8.7446360126798E-07
(PID.TID 0000.0001) %MON g__dynstat_g_vvel_del2       =   5.2256101776658E-08
(PID.TID 0000.0001) %MON g__dynstat_g_wvel_max        =   7.6376962888325E-08
(PID.TID 0000.0001) %MON g__dynstat_g_wvel_min        =  -3.2148611878479E-08
(PID.TID 0000.0001) %MON g__dynstat_g_wvel_mean       =  -9.1522298186893E-29
(PID.TID 0000.0001) %MON g__dynstat_g_wvel_sd         =   4.3560092359629E-10
(PID.TID 0000.0001) %MON g__dynstat_g_wvel_del2       =   8.2106626755939E-11
(PID.TID 0000.0001) %MON g__dynstat_g_theta_max       =   5.4385468216084E-01
(PID.TID 0000.0001) %MON g__dynstat_g_theta_min       =  -5.1415215635615E-04
(PID.TID 0000.0001) %MON g__dynstat_g_theta_mean      =   2.7663069373237E-06
(PID.TID 0000.0001) %MON g__dynstat_g_theta_sd        =   9.1695349489396E-04
(PID.TID 0000.0001) %MON g__dynstat_g_theta_del2      =   2.5908207525865E-05
(PID.TID 0000.0001) %MON g__dynstat_g_salt_max        =   9.1021656080360E-03
(PID.TID 0000.0001) %MON g__dynstat_g_salt_min        =  -7.6795189008287E-03
(PID.TID 0000.0001) %MON g__dynstat_g_salt_mean       =   5.4301738769094E-09
(PID.TID 0000.0001) %MON g__dynstat_g_salt_sd         =   1.7373492038070E-05
(PID.TID 0000.0001) %MON g__dynstat_g_salt_del2       =   8.8995162464396E-07
(PID.TID 0000.0001) %MON g__dynstat_g_sst_max         =   5.4385468216084E-01
(PID.TID 0000.0001) %MON g__dynstat_g_sst_min         =  -1.1790408217485E-04
(PID.TID 0000.0001) %MON g__dynstat_g_sst_mean        =   1.0552081698234E-04
(PID.TID 0000.0001) %MON g__dynstat_g_sst_sd          =   6.9064230677941E-03
(PID.TID 0000.0001) %MON g__dynstat_g_sst_del2        =   2.1472413814258E-04
(PID.TID 0000.0001) %MON g__dynstat_g_sss_max         =   9.1021656080360E-03
(PID.TID 0000.0001) %MON g__dynstat_g_sss_min         =  -7.6795189008287E-03
(PID.TID 0000.0001) %MON g__dynstat_g_sss_mean        =   6.4328621874764E-07
(PID.TID 0000.0001) %MON g__dynstat_g_sss_sd          =   1.5087488635208E-04
(PID.TID 0000.0001) %MON g__dynstat_g_sss_del2        =   9.4604624593600E-06
(PID.TID 0000.0001) %MON g__extforcing_g_qnet_max     =   0.0000000000000E+00
(PID.TID 0000.0001) %MON g__extforcing_g_qnet_min     =   0.0000000000000E+00
(PID.TID 0000.0001) %MON g__extforcing_g_qnet_mean    =   0.0000000000000E+00
(PID.TID 0000.0001) %MON g__extforcing_g_qnet_sd      =   0.0000000000000E+00
(PID.TID 0000.0001) %MON g__extforcing_g_qnet_del2    =   0.0000000000000E+00
(PID.TID 0000.0001) %MON g__extforcing_g_empmr_max    =   0.0000000000000E+00
(PID.TID 0000.0001) %MON g__extforcing_g_empmr_min    =   0.0000000000000E+00
(PID.TID 0000.0001) %MON g__extforcing_g_empmr_mean   =   0.0000000000000E+00
(PID.TID 0000.0001) %MON g__extforcing_g_empmr_sd     =   0.0000000000000E+00
(PID.TID 0000.0001) %MON g__extforcing_g_empmr_del2   =   0.0000000000000E+00
(PID.TID 0000.0001) %MON g__extforcing_g_fu_max       =   0.0000000000000E+00
(PID.TID 0000.0001) %MON g__extforcing_g_fu_min       =   0.0000000000000E+00
(PID.TID 0000.0001) %MON g__extforcing_g_fu_mean      =   0.0000000000000E+00
(PID.TID 0000.0001) %MON g__extforcing_g_fu_sd        =   0.0000000000000E+00
(PID.TID 0000.0001) %MON g__extforcing_g_fu_del2      =   0.0000000000000E+00
(PID.TID 0000.0001) %MON g__extforcing_g_fv_max       =   0.0000000000000E+00
(PID.TID 0000.0001) %MON g__extforcing_g_fv_min       =   0.0000000000000E+00
(PID.TID 0000.0001) %MON g__extforcing_g_fv_mean      =   0.0000000000000E+00
(PID.TID 0000.0001) %MON g__extforcing_g_fv_sd        =   0.0000000000000E+00
(PID.TID 0000.0001) %MON g__extforcing_g_fv_del2      =   0.0000000000000E+00
(PID.TID 0000.0001) %MON g__g_vcfl_g_uvel_max         =   3.1355667099836E-05
(PID.TID 0000.0001) %MON g__g_vcfl_g_vvel_max         =   3.5478920750654E-05
(PID.TID 0000.0001) %MON g__g_vcfl_g_wvel_max         =   4.6808908509458E-05
(PID.TID 0000.0001) %MON g__g_vcfl_g_W_hf_max         =   1.1234138042270E-04
(PID.TID 0000.0001) // =======================================================
(PID.TID 0000.0001) // End MONITOR dynamic field statistics
(PID.TID 0000.0001) // =======================================================
 cg2d: Sum(rhs),rhsMax =   4.88451229773746E-12  1.17767673838985E-02
 cg2d: Sum(rhs),rhsMax =   4.15339984627394E-12  8.18557512400998E+00
(PID.TID 0000.0001) // =======================================================
(PID.TID 0000.0001) // Begin MONITOR dynamic field statistics
(PID.TID 0000.0001) // =======================================================
(PID.TID 0000.0001) %MON g__time_tsnumber             =                    92
(PID.TID 0000.0001) %MON g__time_secondsf             =   3.9744000000000E+06
(PID.TID 0000.0001) %MON g__dynstat_g_eta_max         =   3.5631053485490E-03
(PID.TID 0000.0001) %MON g__dynstat_g_eta_min         =  -2.6678795357441E-05
(PID.TID 0000.0001) %MON g__dynstat_g_eta_mean        =  -3.6929366377319E-18
(PID.TID 0000.0001) %MON g__dynstat_g_eta_sd          =   4.5176211244213E-05
(PID.TID 0000.0001) %MON g__dynstat_g_eta_del2        =   1.5939191265971E-06
(PID.TID 0000.0001) %MON g__dynstat_g_uvel_max        =   7.4958049548184E-05
(PID.TID 0000.0001) %MON g__dynstat_g_uvel_min        =  -7.5613922597514E-05
(PID.TID 0000.0001) %MON g__dynstat_g_uvel_mean       =   1.2395267457242E-09
(PID.TID 0000.0001) %MON g__dynstat_g_uvel_sd         =   2.9707095465303E-07
(PID.TID 0000.0001) %MON g__dynstat_g_uvel_del2       =   4.4044671084337E-08
(PID.TID 0000.0001) %MON g__dynstat_g_vvel_max        =   3.6516741675268E-04
(PID.TID 0000.0001) %MON g__dynstat_g_vvel_min        =  -7.3479114688269E-05
(PID.TID 0000.0001) %MON g__dynstat_g_vvel_mean       =  -6.0737537975748E-09
(PID.TID 0000.0001) %MON g__dynstat_g_vvel_sd         =   8.7549361971053E-07
(PID.TID 0000.0001) %MON g__dynstat_g_vvel_del2       =   5.2288972879069E-08
(PID.TID 0000.0001) %MON g__dynstat_g_wvel_max        =   7.1880667247320E-08
(PID.TID 0000.0001) %MON g__dynstat_g_wvel_min        =  -3.2407959660834E-08
(PID.TID 0000.0001) %MON g__dynstat_g_wvel_mean       =  -2.1751857867363E-28
(PID.TID 0000.0001) %MON g__dynstat_g_wvel_sd         =   4.2283975761072E-10
(PID.TID 0000.0001) %MON g__dynstat_g_wvel_del2       =   8.1499273705155E-11
(PID.TID 0000.0001) %MON g__dynstat_g_theta_max       =   5.3930723124111E-01
(PID.TID 0000.0001) %MON g__dynstat_g_theta_min       =  -5.2102941499446E-04
(PID.TID 0000.0001) %MON g__dynstat_g_theta_mean      =   2.7708479792266E-06
(PID.TID 0000.0001) %MON g__dynstat_g_theta_sd        =   9.1272711824365E-04
(PID.TID 0000.0001) %MON g__dynstat_g_theta_del2      =   2.5809361121772E-05
(PID.TID 0000.0001) %MON g__dynstat_g_salt_max        =   9.1422441726434E-03
(PID.TID 0000.0001) %MON g__dynstat_g_salt_min        =  -7.7144675589027E-03
(PID.TID 0000.0001) %MON g__dynstat_g_salt_mean       =   5.4463570982088E-09
(PID.TID 0000.0001) %MON g__dynstat_g_salt_sd         =   1.7458915587512E-05
(PID.TID 0000.0001) %MON g__dynstat_g_salt_del2       =   8.9604279528036E-07
(PID.TID 0000.0001) %MON g__dynstat_g_sst_max         =   5.3930723124111E-01
(PID.TID 0000.0001) %MON g__dynstat_g_sst_min         =  -1.1744960352900E-04
(PID.TID 0000.0001) %MON g__dynstat_g_sst_mean        =   1.0476815031896E-04
(PID.TID 0000.0001) %MON g__dynstat_g_sst_sd          =   6.8495431208178E-03
(PID.TID 0000.0001) %MON g__dynstat_g_sst_del2        =   2.1283411062793E-04
(PID.TID 0000.0001) %MON g__dynstat_g_sss_max         =   9.1422441726434E-03
(PID.TID 0000.0001) %MON g__dynstat_g_sss_min         =  -7.7144675589027E-03
(PID.TID 0000.0001) %MON g__dynstat_g_sss_mean        =   6.4913718559807E-07
(PID.TID 0000.0001) %MON g__dynstat_g_sss_sd          =   1.5157354512682E-04
(PID.TID 0000.0001) %MON g__dynstat_g_sss_del2        =   9.5009423096783E-06
(PID.TID 0000.0001) %MON g__extforcing_g_qnet_max     =   0.0000000000000E+00
(PID.TID 0000.0001) %MON g__extforcing_g_qnet_min     =   0.0000000000000E+00
(PID.TID 0000.0001) %MON g__extforcing_g_qnet_mean    =   0.0000000000000E+00
(PID.TID 0000.0001) %MON g__extforcing_g_qnet_sd      =   0.0000000000000E+00
(PID.TID 0000.0001) %MON g__extforcing_g_qnet_del2    =   0.0000000000000E+00
(PID.TID 0000.0001) %MON g__extforcing_g_empmr_max    =   0.0000000000000E+00
(PID.TID 0000.0001) %MON g__extforcing_g_empmr_min    =   0.0000000000000E+00
(PID.TID 0000.0001) %MON g__extforcing_g_empmr_mean   =   0.0000000000000E+00
(PID.TID 0000.0001) %MON g__extforcing_g_empmr_sd     =   0.0000000000000E+00
(PID.TID 0000.0001) %MON g__extforcing_g_empmr_del2   =   0.0000000000000E+00
(PID.TID 0000.0001) %MON g__extforcing_g_fu_max       =   0.0000000000000E+00
(PID.TID 0000.0001) %MON g__extforcing_g_fu_min       =   0.0000000000000E+00
(PID.TID 0000.0001) %MON g__extforcing_g_fu_mean      =   0.0000000000000E+00
(PID.TID 0000.0001) %MON g__extforcing_g_fu_sd        =   0.0000000000000E+00
(PID.TID 0000.0001) %MON g__extforcing_g_fu_del2      =   0.0000000000000E+00
(PID.TID 0000.0001) %MON g__extforcing_g_fv_max       =   0.0000000000000E+00
(PID.TID 0000.0001) %MON g__extforcing_g_fv_min       =   0.0000000000000E+00
(PID.TID 0000.0001) %MON g__extforcing_g_fv_mean      =   0.0000000000000E+00
(PID.TID 0000.0001) %MON g__extforcing_g_fv_sd        =   0.0000000000000E+00
(PID.TID 0000.0001) %MON g__extforcing_g_fv_del2      =   0.0000000000000E+00
(PID.TID 0000.0001) %MON g__g_vcfl_g_uvel_max         =   2.6417222733590E-05
(PID.TID 0000.0001) %MON g__g_vcfl_g_vvel_max         =   3.5473086246897E-05
(PID.TID 0000.0001) %MON g__g_vcfl_g_wvel_max         =   4.3625340888021E-05
(PID.TID 0000.0001) %MON g__g_vcfl_g_W_hf_max         =   1.0470081813125E-04
(PID.TID 0000.0001) // =======================================================
(PID.TID 0000.0001) // End MONITOR dynamic field statistics
(PID.TID 0000.0001) // =======================================================
 cg2d: Sum(rhs),rhsMax =   4.94983125193531E-12  1.17459894820951E-02
 cg2d: Sum(rhs),rhsMax =   3.73003017362095E-12  8.65937290165752E+00
(PID.TID 0000.0001) // =======================================================
(PID.TID 0000.0001) // Begin MONITOR dynamic field statistics
(PID.TID 0000.0001) // =======================================================
(PID.TID 0000.0001) %MON g__time_tsnumber             =                    93
(PID.TID 0000.0001) %MON g__time_secondsf             =   4.0176000000000E+06
(PID.TID 0000.0001) %MON g__dynstat_g_eta_max         =   3.5536179979742E-03
(PID.TID 0000.0001) %MON g__dynstat_g_eta_min         =  -2.6836026772841E-05
(PID.TID 0000.0001) %MON g__dynstat_g_eta_mean        =  -3.7262777179728E-18
(PID.TID 0000.0001) %MON g__dynstat_g_eta_sd          =   4.5053825658996E-05
(PID.TID 0000.0001) %MON g__dynstat_g_eta_del2        =   1.5880149391465E-06
(PID.TID 0000.0001) %MON g__dynstat_g_uvel_max        =   5.9512142247807E-05
(PID.TID 0000.0001) %MON g__dynstat_g_uvel_min        =  -7.6815322503923E-05
(PID.TID 0000.0001) %MON g__dynstat_g_uvel_mean       =   2.7597552027054E-09
(PID.TID 0000.0001) %MON g__dynstat_g_uvel_sd         =   2.8243661604580E-07
(PID.TID 0000.0001) %MON g__dynstat_g_uvel_del2       =   4.3389660631907E-08
(PID.TID 0000.0001) %MON g__dynstat_g_vvel_max        =   3.6492336879507E-04
(PID.TID 0000.0001) %MON g__dynstat_g_vvel_min        =  -7.1933673439602E-05
(PID.TID 0000.0001) %MON g__dynstat_g_vvel_mean       =  -7.9630669751246E-09
(PID.TID 0000.0001) %MON g__dynstat_g_vvel_sd         =   8.7593590629184E-07
(PID.TID 0000.0001) %MON g__dynstat_g_vvel_del2       =   5.2322415153452E-08
(PID.TID 0000.0001) %MON g__dynstat_g_wvel_max        =   6.7602396612582E-08
(PID.TID 0000.0001) %MON g__dynstat_g_wvel_min        =  -3.2743363376535E-08
(PID.TID 0000.0001) %MON g__dynstat_g_wvel_mean       =   1.5170302160271E-27
(PID.TID 0000.0001) %MON g__dynstat_g_wvel_sd         =   4.0906791895375E-10
(PID.TID 0000.0001) %MON g__dynstat_g_wvel_del2       =   8.0538300953721E-11
(PID.TID 0000.0001) %MON g__dynstat_g_theta_max       =   5.3459712772000E-01
(PID.TID 0000.0001) %MON g__dynstat_g_theta_min       =  -5.2801886393493E-04
(PID.TID 0000.0001) %MON g__dynstat_g_theta_mean      =   2.7741121926438E-06
(PID.TID 0000.0001) %MON g__dynstat_g_theta_sd        =   9.0812143990346E-04
(PID.TID 0000.0001) %MON g__dynstat_g_theta_del2      =   2.5696936027304E-05
(PID.TID 0000.0001) %MON g__dynstat_g_salt_max        =   9.1757658457128E-03
(PID.TID 0000.0001) %MON g__dynstat_g_salt_min        =  -7.7438157089267E-03
(PID.TID 0000.0001) %MON g__dynstat_g_salt_mean       =   5.4875979591859E-09
(PID.TID 0000.0001) %MON g__dynstat_g_salt_sd         =   1.7531568193748E-05
(PID.TID 0000.0001) %MON g__dynstat_g_salt_del2       =   9.0130313882308E-07
(PID.TID 0000.0001) %MON g__dynstat_g_sst_max         =   5.3459712772000E-01
(PID.TID 0000.0001) %MON g__dynstat_g_sst_min         =  -1.1644081348056E-04
(PID.TID 0000.0001) %MON g__dynstat_g_sst_mean        =   1.0398423969814E-04
(PID.TID 0000.0001) %MON g__dynstat_g_sst_sd          =   6.7905641092741E-03
(PID.TID 0000.0001) %MON g__dynstat_g_sst_del2        =   2.1087984425997E-04
(PID.TID 0000.0001) %MON g__dynstat_g_sss_max         =   9.1757658457128E-03
(PID.TID 0000.0001) %MON g__dynstat_g_sss_min         =  -7.7438157089267E-03
(PID.TID 0000.0001) %MON g__dynstat_g_sss_mean        =   6.5519583806446E-07
(PID.TID 0000.0001) %MON g__dynstat_g_sss_sd          =   1.5216230614837E-04
(PID.TID 0000.0001) %MON g__dynstat_g_sss_del2        =   9.5342256478910E-06
(PID.TID 0000.0001) %MON g__extforcing_g_qnet_max     =   0.0000000000000E+00
(PID.TID 0000.0001) %MON g__extforcing_g_qnet_min     =   0.0000000000000E+00
(PID.TID 0000.0001) %MON g__extforcing_g_qnet_mean    =   0.0000000000000E+00
(PID.TID 0000.0001) %MON g__extforcing_g_qnet_sd      =   0.0000000000000E+00
(PID.TID 0000.0001) %MON g__extforcing_g_qnet_del2    =   0.0000000000000E+00
(PID.TID 0000.0001) %MON g__extforcing_g_empmr_max    =   0.0000000000000E+00
(PID.TID 0000.0001) %MON g__extforcing_g_empmr_min    =   0.0000000000000E+00
(PID.TID 0000.0001) %MON g__extforcing_g_empmr_mean   =   0.0000000000000E+00
(PID.TID 0000.0001) %MON g__extforcing_g_empmr_sd     =   0.0000000000000E+00
(PID.TID 0000.0001) %MON g__extforcing_g_empmr_del2   =   0.0000000000000E+00
(PID.TID 0000.0001) %MON g__extforcing_g_fu_max       =   0.0000000000000E+00
(PID.TID 0000.0001) %MON g__extforcing_g_fu_min       =   0.0000000000000E+00
(PID.TID 0000.0001) %MON g__extforcing_g_fu_mean      =   0.0000000000000E+00
(PID.TID 0000.0001) %MON g__extforcing_g_fu_sd        =   0.0000000000000E+00
(PID.TID 0000.0001) %MON g__extforcing_g_fu_del2      =   0.0000000000000E+00
(PID.TID 0000.0001) %MON g__extforcing_g_fv_max       =   0.0000000000000E+00
(PID.TID 0000.0001) %MON g__extforcing_g_fv_min       =   0.0000000000000E+00
(PID.TID 0000.0001) %MON g__extforcing_g_fv_mean      =   0.0000000000000E+00
(PID.TID 0000.0001) %MON g__extforcing_g_fv_sd        =   0.0000000000000E+00
(PID.TID 0000.0001) %MON g__extforcing_g_fv_del2      =   0.0000000000000E+00
(PID.TID 0000.0001) %MON g__g_vcfl_g_uvel_max         =   2.1817406787418E-05
(PID.TID 0000.0001) %MON g__g_vcfl_g_vvel_max         =   3.5449378944844E-05
(PID.TID 0000.0001) %MON g__g_vcfl_g_wvel_max         =   4.0561349708615E-05
(PID.TID 0000.0001) %MON g__g_vcfl_g_W_hf_max         =   9.7347239300675E-05
(PID.TID 0000.0001) // =======================================================
(PID.TID 0000.0001) // End MONITOR dynamic field statistics
(PID.TID 0000.0001) // =======================================================
 cg2d: Sum(rhs),rhsMax =   5.01051496910117E-12  1.17030126888307E-02
 cg2d: Sum(rhs),rhsMax =   3.47395723299115E-12  9.08149159275096E+00
(PID.TID 0000.0001) // =======================================================
(PID.TID 0000.0001) // Begin MONITOR dynamic field statistics
(PID.TID 0000.0001) // =======================================================
(PID.TID 0000.0001) %MON g__time_tsnumber             =                    94
(PID.TID 0000.0001) %MON g__time_secondsf             =   4.0608000000000E+06
(PID.TID 0000.0001) %MON g__dynstat_g_eta_max         =   3.5402582832982E-03
(PID.TID 0000.0001) %MON g__dynstat_g_eta_min         =  -2.7466252762094E-05
(PID.TID 0000.0001) %MON g__dynstat_g_eta_mean        =  -3.7600090250338E-18
(PID.TID 0000.0001) %MON g__dynstat_g_eta_sd          =   4.4881963089645E-05
(PID.TID 0000.0001) %MON g__dynstat_g_eta_del2        =   1.5818946662936E-06
(PID.TID 0000.0001) %MON g__dynstat_g_uvel_max        =   4.3029680566641E-05
(PID.TID 0000.0001) %MON g__dynstat_g_uvel_min        =  -7.7946625451592E-05
(PID.TID 0000.0001) %MON g__dynstat_g_uvel_mean       =   4.5053396392971E-09
(PID.TID 0000.0001) %MON g__dynstat_g_uvel_sd         =   2.7039522056805E-07
(PID.TID 0000.0001) %MON g__dynstat_g_uvel_del2       =   4.2721872039909E-08
(PID.TID 0000.0001) %MON g__dynstat_g_vvel_max        =   3.6447068295806E-04
(PID.TID 0000.0001) %MON g__dynstat_g_vvel_min        =  -7.0362886991528E-05
(PID.TID 0000.0001) %MON g__dynstat_g_vvel_mean       =  -9.7783104518041E-09
(PID.TID 0000.0001) %MON g__dynstat_g_vvel_sd         =   8.7559775120768E-07
(PID.TID 0000.0001) %MON g__dynstat_g_vvel_del2       =   5.2275353888537E-08
(PID.TID 0000.0001) %MON g__dynstat_g_wvel_max        =   6.3716397906349E-08
(PID.TID 0000.0001) %MON g__dynstat_g_wvel_min        =  -3.3145897861443E-08
(PID.TID 0000.0001) %MON g__dynstat_g_wvel_mean       =  -1.7604480301341E-28
(PID.TID 0000.0001) %MON g__dynstat_g_wvel_sd         =   3.9497306366858E-10
(PID.TID 0000.0001) %MON g__dynstat_g_wvel_del2       =   7.9321154449248E-11
(PID.TID 0000.0001) %MON g__dynstat_g_theta_max       =   5.2972136321724E-01
(PID.TID 0000.0001) %MON g__dynstat_g_theta_min       =  -5.3516043289846E-04
(PID.TID 0000.0001) %MON g__dynstat_g_theta_mean      =   2.7758856862778E-06
(PID.TID 0000.0001) %MON g__dynstat_g_theta_sd        =   9.0311787355502E-04
(PID.TID 0000.0001) %MON g__dynstat_g_theta_del2      =   2.5572421296482E-05
(PID.TID 0000.0001) %MON g__dynstat_g_salt_max        =   9.2026168321774E-03
(PID.TID 0000.0001) %MON g__dynstat_g_salt_min        =  -7.7672438667655E-03
(PID.TID 0000.0001) %MON g__dynstat_g_salt_mean       =   5.5568119812616E-09
(PID.TID 0000.0001) %MON g__dynstat_g_salt_sd         =   1.7590888134675E-05
(PID.TID 0000.0001) %MON g__dynstat_g_salt_del2       =   9.0587900576045E-07
(PID.TID 0000.0001) %MON g__dynstat_g_sst_max         =   5.2972136321724E-01
(PID.TID 0000.0001) %MON g__dynstat_g_sst_min         =  -1.1488181591730E-04
(PID.TID 0000.0001) %MON g__dynstat_g_sst_mean        =   1.0316248955772E-04
(PID.TID 0000.0001) %MON g__dynstat_g_sst_sd          =   6.7294439099812E-03
(PID.TID 0000.0001) %MON g__dynstat_g_sst_del2        =   2.0886962994884E-04
(PID.TID 0000.0001) %MON g__dynstat_g_sss_max         =   9.2026168321774E-03
(PID.TID 0000.0001) %MON g__dynstat_g_sss_min         =  -7.7672438667655E-03
(PID.TID 0000.0001) %MON g__dynstat_g_sss_mean        =   6.6079560441781E-07
(PID.TID 0000.0001) %MON g__dynstat_g_sss_sd          =   1.5263701392597E-04
(PID.TID 0000.0001) %MON g__dynstat_g_sss_del2        =   9.5612671882324E-06
(PID.TID 0000.0001) %MON g__extforcing_g_qnet_max     =   0.0000000000000E+00
(PID.TID 0000.0001) %MON g__extforcing_g_qnet_min     =   0.0000000000000E+00
(PID.TID 0000.0001) %MON g__extforcing_g_qnet_mean    =   0.0000000000000E+00
(PID.TID 0000.0001) %MON g__extforcing_g_qnet_sd      =   0.0000000000000E+00
(PID.TID 0000.0001) %MON g__extforcing_g_qnet_del2    =   0.0000000000000E+00
(PID.TID 0000.0001) %MON g__extforcing_g_empmr_max    =   0.0000000000000E+00
(PID.TID 0000.0001) %MON g__extforcing_g_empmr_min    =   0.0000000000000E+00
(PID.TID 0000.0001) %MON g__extforcing_g_empmr_mean   =   0.0000000000000E+00
(PID.TID 0000.0001) %MON g__extforcing_g_empmr_sd     =   0.0000000000000E+00
(PID.TID 0000.0001) %MON g__extforcing_g_empmr_del2   =   0.0000000000000E+00
(PID.TID 0000.0001) %MON g__extforcing_g_fu_max       =   0.0000000000000E+00
(PID.TID 0000.0001) %MON g__extforcing_g_fu_min       =   0.0000000000000E+00
(PID.TID 0000.0001) %MON g__extforcing_g_fu_mean      =   0.0000000000000E+00
(PID.TID 0000.0001) %MON g__extforcing_g_fu_sd        =   0.0000000000000E+00
(PID.TID 0000.0001) %MON g__extforcing_g_fu_del2      =   0.0000000000000E+00
(PID.TID 0000.0001) %MON g__extforcing_g_fv_max       =   0.0000000000000E+00
(PID.TID 0000.0001) %MON g__extforcing_g_fv_min       =   0.0000000000000E+00
(PID.TID 0000.0001) %MON g__extforcing_g_fv_mean      =   0.0000000000000E+00
(PID.TID 0000.0001) %MON g__extforcing_g_fv_sd        =   0.0000000000000E+00
(PID.TID 0000.0001) %MON g__extforcing_g_fv_del2      =   0.0000000000000E+00
(PID.TID 0000.0001) %MON g__g_vcfl_g_uvel_max         =   2.2138724147087E-05
(PID.TID 0000.0001) %MON g__g_vcfl_g_vvel_max         =   3.5405404145882E-05
(PID.TID 0000.0001) %MON g__g_vcfl_g_wvel_max         =   3.7733843474144E-05
(PID.TID 0000.0001) %MON g__g_vcfl_g_W_hf_max         =   9.0561224337945E-05
(PID.TID 0000.0001) // =======================================================
(PID.TID 0000.0001) // End MONITOR dynamic field statistics
(PID.TID 0000.0001) // =======================================================
 cg2d: Sum(rhs),rhsMax =   5.08088266656926E-12  1.16481277095049E-02
 cg2d: Sum(rhs),rhsMax =   2.86847628983011E-12  9.44424370111450E+00
(PID.TID 0000.0001) // =======================================================
(PID.TID 0000.0001) // Begin MONITOR dynamic field statistics
(PID.TID 0000.0001) // =======================================================
(PID.TID 0000.0001) %MON g__time_tsnumber             =                    95
(PID.TID 0000.0001) %MON g__time_secondsf             =   4.1040000000000E+06
(PID.TID 0000.0001) %MON g__dynstat_g_eta_max         =   3.5231332432181E-03
(PID.TID 0000.0001) %MON g__dynstat_g_eta_min         =  -2.8528106164537E-05
(PID.TID 0000.0001) %MON g__dynstat_g_eta_mean        =  -3.8069195431703E-18
(PID.TID 0000.0001) %MON g__dynstat_g_eta_sd          =   4.4662137235893E-05
(PID.TID 0000.0001) %MON g__dynstat_g_eta_del2        =   1.5759376997368E-06
(PID.TID 0000.0001) %MON g__dynstat_g_uvel_max        =   2.5922421748856E-05
(PID.TID 0000.0001) %MON g__dynstat_g_uvel_min        =  -7.8968972658303E-05
(PID.TID 0000.0001) %MON g__dynstat_g_uvel_mean       =   6.3985482164266E-09
(PID.TID 0000.0001) %MON g__dynstat_g_uvel_sd         =   2.6298006888579E-07
(PID.TID 0000.0001) %MON g__dynstat_g_uvel_del2       =   4.2029282211448E-08
(PID.TID 0000.0001) %MON g__dynstat_g_vvel_max        =   3.6378537246675E-04
(PID.TID 0000.0001) %MON g__dynstat_g_vvel_min        =  -6.8808254659502E-05
(PID.TID 0000.0001) %MON g__dynstat_g_vvel_mean       =  -1.1487192485741E-08
(PID.TID 0000.0001) %MON g__dynstat_g_vvel_sd         =   8.7431603358914E-07
(PID.TID 0000.0001) %MON g__dynstat_g_vvel_del2       =   5.2116412894588E-08
(PID.TID 0000.0001) %MON g__dynstat_g_wvel_max        =   6.0367131326672E-08
(PID.TID 0000.0001) %MON g__dynstat_g_wvel_min        =  -3.3597546502243E-08
(PID.TID 0000.0001) %MON g__dynstat_g_wvel_mean       =   9.5827171103523E-28
(PID.TID 0000.0001) %MON g__dynstat_g_wvel_sd         =   3.8131390827133E-10
(PID.TID 0000.0001) %MON g__dynstat_g_wvel_del2       =   7.7944835480817E-11
(PID.TID 0000.0001) %MON g__dynstat_g_theta_max       =   5.2468649461562E-01
(PID.TID 0000.0001) %MON g__dynstat_g_theta_min       =  -5.4248510815065E-04
(PID.TID 0000.0001) %MON g__dynstat_g_theta_mean      =   2.7760272822779E-06
(PID.TID 0000.0001) %MON g__dynstat_g_theta_sd        =   8.9771909179648E-04
(PID.TID 0000.0001) %MON g__dynstat_g_theta_del2      =   2.5434711403141E-05
(PID.TID 0000.0001) %MON g__dynstat_g_salt_max        =   9.2229257007876E-03
(PID.TID 0000.0001) %MON g__dynstat_g_salt_min        =  -7.7846756722986E-03
(PID.TID 0000.0001) %MON g__dynstat_g_salt_mean       =   5.6541360328450E-09
(PID.TID 0000.0001) %MON g__dynstat_g_salt_sd         =   1.7636843584542E-05
(PID.TID 0000.0001) %MON g__dynstat_g_salt_del2       =   9.0969585632440E-07
(PID.TID 0000.0001) %MON g__dynstat_g_sst_max         =   5.2468649461562E-01
(PID.TID 0000.0001) %MON g__dynstat_g_sst_min         =  -1.1279621334933E-04
(PID.TID 0000.0001) %MON g__dynstat_g_sst_mean        =   1.0230552759180E-04
(PID.TID 0000.0001) %MON g__dynstat_g_sst_sd          =   6.6662629762209E-03
(PID.TID 0000.0001) %MON g__dynstat_g_sst_del2        =   2.0679817237052E-04
(PID.TID 0000.0001) %MON g__dynstat_g_sss_max         =   9.2229257007876E-03
(PID.TID 0000.0001) %MON g__dynstat_g_sss_min         =  -7.7846756722986E-03
(PID.TID 0000.0001) %MON g__dynstat_g_sss_mean        =   6.6635145087395E-07
(PID.TID 0000.0001) %MON g__dynstat_g_sss_sd          =   1.5299787797902E-04
(PID.TID 0000.0001) %MON g__dynstat_g_sss_del2        =   9.5813439825767E-06
(PID.TID 0000.0001) %MON g__extforcing_g_qnet_max     =   0.0000000000000E+00
(PID.TID 0000.0001) %MON g__extforcing_g_qnet_min     =   0.0000000000000E+00
(PID.TID 0000.0001) %MON g__extforcing_g_qnet_mean    =   0.0000000000000E+00
(PID.TID 0000.0001) %MON g__extforcing_g_qnet_sd      =   0.0000000000000E+00
(PID.TID 0000.0001) %MON g__extforcing_g_qnet_del2    =   0.0000000000000E+00
(PID.TID 0000.0001) %MON g__extforcing_g_empmr_max    =   0.0000000000000E+00
(PID.TID 0000.0001) %MON g__extforcing_g_empmr_min    =   0.0000000000000E+00
(PID.TID 0000.0001) %MON g__extforcing_g_empmr_mean   =   0.0000000000000E+00
(PID.TID 0000.0001) %MON g__extforcing_g_empmr_sd     =   0.0000000000000E+00
(PID.TID 0000.0001) %MON g__extforcing_g_empmr_del2   =   0.0000000000000E+00
(PID.TID 0000.0001) %MON g__extforcing_g_fu_max       =   0.0000000000000E+00
(PID.TID 0000.0001) %MON g__extforcing_g_fu_min       =   0.0000000000000E+00
(PID.TID 0000.0001) %MON g__extforcing_g_fu_mean      =   0.0000000000000E+00
(PID.TID 0000.0001) %MON g__extforcing_g_fu_sd        =   0.0000000000000E+00
(PID.TID 0000.0001) %MON g__extforcing_g_fu_del2      =   0.0000000000000E+00
(PID.TID 0000.0001) %MON g__extforcing_g_fv_max       =   0.0000000000000E+00
(PID.TID 0000.0001) %MON g__extforcing_g_fv_min       =   0.0000000000000E+00
(PID.TID 0000.0001) %MON g__extforcing_g_fv_mean      =   0.0000000000000E+00
(PID.TID 0000.0001) %MON g__extforcing_g_fv_sd        =   0.0000000000000E+00
(PID.TID 0000.0001) %MON g__extforcing_g_fv_del2      =   0.0000000000000E+00
(PID.TID 0000.0001) %MON g__g_vcfl_g_uvel_max         =   2.2429095444892E-05
(PID.TID 0000.0001) %MON g__g_vcfl_g_vvel_max         =   3.5338831727182E-05
(PID.TID 0000.0001) %MON g__g_vcfl_g_wvel_max         =   3.5242011478570E-05
(PID.TID 0000.0001) %MON g__g_vcfl_g_W_hf_max         =   8.4580827548567E-05
(PID.TID 0000.0001) // =======================================================
(PID.TID 0000.0001) // End MONITOR dynamic field statistics
(PID.TID 0000.0001) // =======================================================
 cg2d: Sum(rhs),rhsMax =   5.17366949825406E-12  1.15821688002175E-02
 cg2d: Sum(rhs),rhsMax =   3.05269698408495E-12  9.74175914288520E+00
(PID.TID 0000.0001) // =======================================================
(PID.TID 0000.0001) // Begin MONITOR dynamic field statistics
(PID.TID 0000.0001) // =======================================================
(PID.TID 0000.0001) %MON g__time_tsnumber             =                    96
(PID.TID 0000.0001) %MON g__time_secondsf             =   4.1472000000000E+06
(PID.TID 0000.0001) %MON g__dynstat_g_eta_max         =   3.5025223679985E-03
(PID.TID 0000.0001) %MON g__dynstat_g_eta_min         =  -2.9955383302654E-05
(PID.TID 0000.0001) %MON g__dynstat_g_eta_mean        =  -3.8734950667977E-18
(PID.TID 0000.0001) %MON g__dynstat_g_eta_sd          =   4.4398016442424E-05
(PID.TID 0000.0001) %MON g__dynstat_g_eta_del2        =   1.5694318415053E-06
(PID.TID 0000.0001) %MON g__dynstat_g_uvel_max        =   1.5528931657684E-05
(PID.TID 0000.0001) %MON g__dynstat_g_uvel_min        =  -7.9845895679715E-05
(PID.TID 0000.0001) %MON g__dynstat_g_uvel_mean       =   8.3598022132794E-09
(PID.TID 0000.0001) %MON g__dynstat_g_uvel_sd         =   2.6174888932688E-07
(PID.TID 0000.0001) %MON g__dynstat_g_uvel_del2       =   4.1322147322426E-08
(PID.TID 0000.0001) %MON g__dynstat_g_vvel_max        =   3.6284678005208E-04
(PID.TID 0000.0001) %MON g__dynstat_g_vvel_min        =  -6.7304318779413E-05
(PID.TID 0000.0001) %MON g__dynstat_g_vvel_mean       =  -1.3067332229889E-08
(PID.TID 0000.0001) %MON g__dynstat_g_vvel_sd         =   8.7197102357807E-07
(PID.TID 0000.0001) %MON g__dynstat_g_vvel_del2       =   5.1878075716238E-08
(PID.TID 0000.0001) %MON g__dynstat_g_wvel_max        =   5.7663238092168E-08
(PID.TID 0000.0001) %MON g__dynstat_g_wvel_min        =  -3.4078644610897E-08
(PID.TID 0000.0001) %MON g__dynstat_g_wvel_mean       =   2.1737858280642E-27
(PID.TID 0000.0001) %MON g__dynstat_g_wvel_sd         =   3.6886175052611E-10
(PID.TID 0000.0001) %MON g__dynstat_g_wvel_del2       =   7.6457023169856E-11
(PID.TID 0000.0001) %MON g__dynstat_g_theta_max       =   5.1950641161803E-01
(PID.TID 0000.0001) %MON g__dynstat_g_theta_min       =  -5.6351525346283E-04
(PID.TID 0000.0001) %MON g__dynstat_g_theta_mean      =   2.7744615571192E-06
(PID.TID 0000.0001) %MON g__dynstat_g_theta_sd        =   8.9194555353139E-04
(PID.TID 0000.0001) %MON g__dynstat_g_theta_del2      =   2.5284549767741E-05
(PID.TID 0000.0001) %MON g__dynstat_g_salt_max        =   9.2370411908571E-03
(PID.TID 0000.0001) %MON g__dynstat_g_salt_min        =  -7.7962447510766E-03
(PID.TID 0000.0001) %MON g__dynstat_g_salt_mean       =   5.7770412674628E-09
(PID.TID 0000.0001) %MON g__dynstat_g_salt_sd         =   1.7669882807944E-05
(PID.TID 0000.0001) %MON g__dynstat_g_salt_del2       =   9.1284453890324E-07
(PID.TID 0000.0001) %MON g__dynstat_g_sst_max         =   5.1950641161803E-01
(PID.TID 0000.0001) %MON g__dynstat_g_sst_min         =  -1.1022930377674E-04
(PID.TID 0000.0001) %MON g__dynstat_g_sst_mean        =   1.0141655365569E-04
(PID.TID 0000.0001) %MON g__dynstat_g_sst_sd          =   6.6011952896283E-03
(PID.TID 0000.0001) %MON g__dynstat_g_sst_del2        =   2.0467440852222E-04
(PID.TID 0000.0001) %MON g__dynstat_g_sss_max         =   9.2370411908571E-03
(PID.TID 0000.0001) %MON g__dynstat_g_sss_min         =  -7.7962447510766E-03
(PID.TID 0000.0001) %MON g__dynstat_g_sss_mean        =   6.7154520096507E-07
(PID.TID 0000.0001) %MON g__dynstat_g_sss_sd          =   1.5324901337674E-04
(PID.TID 0000.0001) %MON g__dynstat_g_sss_del2        =   9.5951705671292E-06
(PID.TID 0000.0001) %MON g__extforcing_g_qnet_max     =   0.0000000000000E+00
(PID.TID 0000.0001) %MON g__extforcing_g_qnet_min     =   0.0000000000000E+00
(PID.TID 0000.0001) %MON g__extforcing_g_qnet_mean    =   0.0000000000000E+00
(PID.TID 0000.0001) %MON g__extforcing_g_qnet_sd      =   0.0000000000000E+00
(PID.TID 0000.0001) %MON g__extforcing_g_qnet_del2    =   0.0000000000000E+00
(PID.TID 0000.0001) %MON g__extforcing_g_empmr_max    =   0.0000000000000E+00
(PID.TID 0000.0001) %MON g__extforcing_g_empmr_min    =   0.0000000000000E+00
(PID.TID 0000.0001) %MON g__extforcing_g_empmr_mean   =   0.0000000000000E+00
(PID.TID 0000.0001) %MON g__extforcing_g_empmr_sd     =   0.0000000000000E+00
(PID.TID 0000.0001) %MON g__extforcing_g_empmr_del2   =   0.0000000000000E+00
(PID.TID 0000.0001) %MON g__extforcing_g_fu_max       =   0.0000000000000E+00
(PID.TID 0000.0001) %MON g__extforcing_g_fu_min       =   0.0000000000000E+00
(PID.TID 0000.0001) %MON g__extforcing_g_fu_mean      =   0.0000000000000E+00
(PID.TID 0000.0001) %MON g__extforcing_g_fu_sd        =   0.0000000000000E+00
(PID.TID 0000.0001) %MON g__extforcing_g_fu_del2      =   0.0000000000000E+00
(PID.TID 0000.0001) %MON g__extforcing_g_fv_max       =   0.0000000000000E+00
(PID.TID 0000.0001) %MON g__extforcing_g_fv_min       =   0.0000000000000E+00
(PID.TID 0000.0001) %MON g__extforcing_g_fv_mean      =   0.0000000000000E+00
(PID.TID 0000.0001) %MON g__extforcing_g_fv_sd        =   0.0000000000000E+00
(PID.TID 0000.0001) %MON g__extforcing_g_fv_del2      =   0.0000000000000E+00
(PID.TID 0000.0001) %MON g__g_vcfl_g_uvel_max         =   2.2678162761877E-05
(PID.TID 0000.0001) %MON g__g_vcfl_g_vvel_max         =   3.5247655000702E-05
(PID.TID 0000.0001) %MON g__g_vcfl_g_wvel_max         =   3.3162500304758E-05
(PID.TID 0000.0001) %MON g__g_vcfl_g_W_hf_max         =   7.9590000731419E-05
(PID.TID 0000.0001) // =======================================================
(PID.TID 0000.0001) // End MONITOR dynamic field statistics
(PID.TID 0000.0001) // =======================================================
 cg2d: Sum(rhs),rhsMax =   5.29720009887901E-12  1.15063926769432E-02
 cg2d: Sum(rhs),rhsMax =   2.91269786067971E-12  9.97004063040943E+00
(PID.TID 0000.0001) // =======================================================
(PID.TID 0000.0001) // Begin MONITOR dynamic field statistics
(PID.TID 0000.0001) // =======================================================
(PID.TID 0000.0001) %MON g__time_tsnumber             =                    97
(PID.TID 0000.0001) %MON g__time_secondsf             =   4.1904000000000E+06
(PID.TID 0000.0001) %MON g__dynstat_g_eta_max         =   3.4788380609022E-03
(PID.TID 0000.0001) %MON g__dynstat_g_eta_min         =  -3.1664143599247E-05
(PID.TID 0000.0001) %MON g__dynstat_g_eta_mean        =  -3.9579967697872E-18
(PID.TID 0000.0001) %MON g__dynstat_g_eta_sd          =   4.4094916761210E-05
(PID.TID 0000.0001) %MON g__dynstat_g_eta_del2        =   1.5626717780065E-06
(PID.TID 0000.0001) %MON g__dynstat_g_uvel_max        =   1.5649813187570E-05
(PID.TID 0000.0001) %MON g__dynstat_g_uvel_min        =  -8.0545146405445E-05
(PID.TID 0000.0001) %MON g__dynstat_g_uvel_mean       =   1.0310795394271E-08
(PID.TID 0000.0001) %MON g__dynstat_g_uvel_sd         =   2.6731225292964E-07
(PID.TID 0000.0001) %MON g__dynstat_g_uvel_del2       =   4.0790001245598E-08
(PID.TID 0000.0001) %MON g__dynstat_g_vvel_max        =   3.6164011015288E-04
(PID.TID 0000.0001) %MON g__dynstat_g_vvel_min        =  -6.5877848033599E-05
(PID.TID 0000.0001) %MON g__dynstat_g_vvel_mean       =  -1.4506714654068E-08
(PID.TID 0000.0001) %MON g__dynstat_g_vvel_sd         =   8.6849612365527E-07
(PID.TID 0000.0001) %MON g__dynstat_g_vvel_del2       =   5.1571053762729E-08
(PID.TID 0000.0001) %MON g__dynstat_g_wvel_max        =   5.5674590905396E-08
(PID.TID 0000.0001) %MON g__dynstat_g_wvel_min        =  -3.4568073714706E-08
(PID.TID 0000.0001) %MON g__dynstat_g_wvel_mean       =  -3.8614360072504E-27
(PID.TID 0000.0001) %MON g__dynstat_g_wvel_sd         =   3.5834177094212E-10
(PID.TID 0000.0001) %MON g__dynstat_g_wvel_del2       =   7.4736105530398E-11
(PID.TID 0000.0001) %MON g__dynstat_g_theta_max       =   5.1420088250002E-01
(PID.TID 0000.0001) %MON g__dynstat_g_theta_min       =  -5.8705625313876E-04
(PID.TID 0000.0001) %MON g__dynstat_g_theta_mean      =   2.7711782384643E-06
(PID.TID 0000.0001) %MON g__dynstat_g_theta_sd        =   8.8583279994133E-04
(PID.TID 0000.0001) %MON g__dynstat_g_theta_del2      =   2.5122792314754E-05
(PID.TID 0000.0001) %MON g__dynstat_g_salt_max        =   9.2454989772534E-03
(PID.TID 0000.0001) %MON g__dynstat_g_salt_min        =  -7.8022746970972E-03
(PID.TID 0000.0001) %MON g__dynstat_g_salt_mean       =   5.9207820656526E-09
(PID.TID 0000.0001) %MON g__dynstat_g_salt_sd         =   1.7690878579949E-05
(PID.TID 0000.0001) %MON g__dynstat_g_salt_del2       =   9.1532576509869E-07
(PID.TID 0000.0001) %MON g__dynstat_g_sst_max         =   5.1420088250002E-01
(PID.TID 0000.0001) %MON g__dynstat_g_sst_min         =  -1.0724714599521E-04
(PID.TID 0000.0001) %MON g__dynstat_g_sst_mean        =   1.0049943885772E-04
(PID.TID 0000.0001) %MON g__dynstat_g_sst_sd          =   6.5344900345375E-03
(PID.TID 0000.0001) %MON g__dynstat_g_sst_del2        =   2.0250423466824E-04
(PID.TID 0000.0001) %MON g__dynstat_g_sss_max         =   9.2454989772534E-03
(PID.TID 0000.0001) %MON g__dynstat_g_sss_min         =  -7.8022746970972E-03
(PID.TID 0000.0001) %MON g__dynstat_g_sss_mean        =   6.7664871304514E-07
(PID.TID 0000.0001) %MON g__dynstat_g_sss_sd          =   1.5339796559142E-04
(PID.TID 0000.0001) %MON g__dynstat_g_sss_del2        =   9.6029257778781E-06
(PID.TID 0000.0001) %MON g__extforcing_g_qnet_max     =   0.0000000000000E+00
(PID.TID 0000.0001) %MON g__extforcing_g_qnet_min     =   0.0000000000000E+00
(PID.TID 0000.0001) %MON g__extforcing_g_qnet_mean    =   0.0000000000000E+00
(PID.TID 0000.0001) %MON g__extforcing_g_qnet_sd      =   0.0000000000000E+00
(PID.TID 0000.0001) %MON g__extforcing_g_qnet_del2    =   0.0000000000000E+00
(PID.TID 0000.0001) %MON g__extforcing_g_empmr_max    =   0.0000000000000E+00
(PID.TID 0000.0001) %MON g__extforcing_g_empmr_min    =   0.0000000000000E+00
(PID.TID 0000.0001) %MON g__extforcing_g_empmr_mean   =   0.0000000000000E+00
(PID.TID 0000.0001) %MON g__extforcing_g_empmr_sd     =   0.0000000000000E+00
(PID.TID 0000.0001) %MON g__extforcing_g_empmr_del2   =   0.0000000000000E+00
(PID.TID 0000.0001) %MON g__extforcing_g_fu_max       =   0.0000000000000E+00
(PID.TID 0000.0001) %MON g__extforcing_g_fu_min       =   0.0000000000000E+00
(PID.TID 0000.0001) %MON g__extforcing_g_fu_mean      =   0.0000000000000E+00
(PID.TID 0000.0001) %MON g__extforcing_g_fu_sd        =   0.0000000000000E+00
(PID.TID 0000.0001) %MON g__extforcing_g_fu_del2      =   0.0000000000000E+00
(PID.TID 0000.0001) %MON g__extforcing_g_fv_max       =   0.0000000000000E+00
(PID.TID 0000.0001) %MON g__extforcing_g_fv_min       =   0.0000000000000E+00
(PID.TID 0000.0001) %MON g__extforcing_g_fv_mean      =   0.0000000000000E+00
(PID.TID 0000.0001) %MON g__extforcing_g_fv_sd        =   0.0000000000000E+00
(PID.TID 0000.0001) %MON g__extforcing_g_fv_del2      =   0.0000000000000E+00
(PID.TID 0000.0001) %MON g__g_vcfl_g_uvel_max         =   2.2876766855857E-05
(PID.TID 0000.0001) %MON g__g_vcfl_g_vvel_max         =   3.5130436696324E-05
(PID.TID 0000.0001) %MON g__g_vcfl_g_wvel_max         =   3.4105402218671E-05
(PID.TID 0000.0001) %MON g__g_vcfl_g_W_hf_max         =   7.5713072427011E-05
(PID.TID 0000.0001) // =======================================================
(PID.TID 0000.0001) // End MONITOR dynamic field statistics
(PID.TID 0000.0001) // =======================================================
 cg2d: Sum(rhs),rhsMax =   5.45361345956997E-12  1.14223528896512E-02
 cg2d: Sum(rhs),rhsMax =   3.26926680171979E-12  1.01269749889254E+01
(PID.TID 0000.0001) // =======================================================
(PID.TID 0000.0001) // Begin MONITOR dynamic field statistics
(PID.TID 0000.0001) // =======================================================
(PID.TID 0000.0001) %MON g__time_tsnumber             =                    98
(PID.TID 0000.0001) %MON g__time_secondsf             =   4.2336000000000E+06
(PID.TID 0000.0001) %MON g__dynstat_g_eta_max         =   3.4525844569793E-03
(PID.TID 0000.0001) %MON g__dynstat_g_eta_min         =  -3.3559800318572E-05
(PID.TID 0000.0001) %MON g__dynstat_g_eta_mean        =  -4.0596415998628E-18
(PID.TID 0000.0001) %MON g__dynstat_g_eta_sd          =   4.3759281969245E-05
(PID.TID 0000.0001) %MON g__dynstat_g_eta_del2        =   1.5559604378112E-06
(PID.TID 0000.0001) %MON g__dynstat_g_uvel_max        =   1.5178751551968E-05
(PID.TID 0000.0001) %MON g__dynstat_g_uvel_min        =  -8.1040151687365E-05
(PID.TID 0000.0001) %MON g__dynstat_g_uvel_mean       =   1.2177456266257E-08
(PID.TID 0000.0001) %MON g__dynstat_g_uvel_sd         =   2.7913451190187E-07
(PID.TID 0000.0001) %MON g__dynstat_g_uvel_del2       =   4.0205526495936E-08
(PID.TID 0000.0001) %MON g__dynstat_g_vvel_max        =   3.6015837918831E-04
(PID.TID 0000.0001) %MON g__dynstat_g_vvel_min        =  -6.4547941650465E-05
(PID.TID 0000.0001) %MON g__dynstat_g_vvel_mean       =  -1.5803659664676E-08
(PID.TID 0000.0001) %MON g__dynstat_g_vvel_sd         =   8.6388379303138E-07
(PID.TID 0000.0001) %MON g__dynstat_g_vvel_del2       =   5.1233049800988E-08
(PID.TID 0000.0001) %MON g__dynstat_g_wvel_max        =   5.4431954560236E-08
(PID.TID 0000.0001) %MON g__dynstat_g_wvel_min        =  -3.5044001197684E-08
(PID.TID 0000.0001) %MON g__dynstat_g_wvel_mean       =  -1.0359694173354E-27
(PID.TID 0000.0001) %MON g__dynstat_g_wvel_sd         =   3.5034876067374E-10
(PID.TID 0000.0001) %MON g__dynstat_g_wvel_del2       =   7.3162953501944E-11
(PID.TID 0000.0001) %MON g__dynstat_g_theta_max       =   5.0879398192007E-01
(PID.TID 0000.0001) %MON g__dynstat_g_theta_min       =  -6.0998056910973E-04
(PID.TID 0000.0001) %MON g__dynstat_g_theta_mean      =   2.7662253432767E-06
(PID.TID 0000.0001) %MON g__dynstat_g_theta_sd        =   8.7942833309441E-04
(PID.TID 0000.0001) %MON g__dynstat_g_theta_del2      =   2.4950737077303E-05
(PID.TID 0000.0001) %MON g__dynstat_g_salt_max        =   9.2489848210120E-03
(PID.TID 0000.0001) %MON g__dynstat_g_salt_min        =  -7.8032511387633E-03
(PID.TID 0000.0001) %MON g__dynstat_g_salt_mean       =   6.0787937038874E-09
(PID.TID 0000.0001) %MON g__dynstat_g_salt_sd         =   1.7701058454085E-05
(PID.TID 0000.0001) %MON g__dynstat_g_salt_del2       =   9.1718332248385E-07
(PID.TID 0000.0001) %MON g__dynstat_g_sst_max         =   5.0879398192007E-01
(PID.TID 0000.0001) %MON g__dynstat_g_sst_min         =  -1.0393338619679E-04
(PID.TID 0000.0001) %MON g__dynstat_g_sst_mean        =   9.9558216851735E-05
(PID.TID 0000.0001) %MON g__dynstat_g_sst_sd          =   6.4664517151134E-03
(PID.TID 0000.0001) %MON g__dynstat_g_sst_del2        =   2.0029795745458E-04
(PID.TID 0000.0001) %MON g__dynstat_g_sss_max         =   9.2489848210120E-03
(PID.TID 0000.0001) %MON g__dynstat_g_sss_min         =  -7.8032511387633E-03
(PID.TID 0000.0001) %MON g__dynstat_g_sss_mean        =   6.8160160029798E-07
(PID.TID 0000.0001) %MON g__dynstat_g_sss_sd          =   1.5345514163575E-04
(PID.TID 0000.0001) %MON g__dynstat_g_sss_del2        =   9.6050327974689E-06
(PID.TID 0000.0001) %MON g__extforcing_g_qnet_max     =   0.0000000000000E+00
(PID.TID 0000.0001) %MON g__extforcing_g_qnet_min     =   0.0000000000000E+00
(PID.TID 0000.0001) %MON g__extforcing_g_qnet_mean    =   0.0000000000000E+00
(PID.TID 0000.0001) %MON g__extforcing_g_qnet_sd      =   0.0000000000000E+00
(PID.TID 0000.0001) %MON g__extforcing_g_qnet_del2    =   0.0000000000000E+00
(PID.TID 0000.0001) %MON g__extforcing_g_empmr_max    =   0.0000000000000E+00
(PID.TID 0000.0001) %MON g__extforcing_g_empmr_min    =   0.0000000000000E+00
(PID.TID 0000.0001) %MON g__extforcing_g_empmr_mean   =   0.0000000000000E+00
(PID.TID 0000.0001) %MON g__extforcing_g_empmr_sd     =   0.0000000000000E+00
(PID.TID 0000.0001) %MON g__extforcing_g_empmr_del2   =   0.0000000000000E+00
(PID.TID 0000.0001) %MON g__extforcing_g_fu_max       =   0.0000000000000E+00
(PID.TID 0000.0001) %MON g__extforcing_g_fu_min       =   0.0000000000000E+00
(PID.TID 0000.0001) %MON g__extforcing_g_fu_mean      =   0.0000000000000E+00
(PID.TID 0000.0001) %MON g__extforcing_g_fu_sd        =   0.0000000000000E+00
(PID.TID 0000.0001) %MON g__extforcing_g_fu_del2      =   0.0000000000000E+00
(PID.TID 0000.0001) %MON g__extforcing_g_fv_max       =   0.0000000000000E+00
(PID.TID 0000.0001) %MON g__extforcing_g_fv_min       =   0.0000000000000E+00
(PID.TID 0000.0001) %MON g__extforcing_g_fv_mean      =   0.0000000000000E+00
(PID.TID 0000.0001) %MON g__extforcing_g_fv_sd        =   0.0000000000000E+00
(PID.TID 0000.0001) %MON g__extforcing_g_fv_del2      =   0.0000000000000E+00
(PID.TID 0000.0001) %MON g__g_vcfl_g_uvel_max         =   2.3017360310984E-05
(PID.TID 0000.0001) %MON g__g_vcfl_g_vvel_max         =   3.4986498415170E-05
(PID.TID 0000.0001) %MON g__g_vcfl_g_wvel_max         =   3.7805189648918E-05
(PID.TID 0000.0001) %MON g__g_vcfl_g_W_hf_max         =   7.3013291047039E-05
(PID.TID 0000.0001) // =======================================================
(PID.TID 0000.0001) // End MONITOR dynamic field statistics
(PID.TID 0000.0001) // =======================================================
 cg2d: Sum(rhs),rhsMax =   5.64087155044619E-12  1.13317783781910E-02
 cg2d: Sum(rhs),rhsMax =   3.03563424397524E-12  1.02123013095249E+01
(PID.TID 0000.0001) // =======================================================
(PID.TID 0000.0001) // Begin MONITOR dynamic field statistics
(PID.TID 0000.0001) // =======================================================
(PID.TID 0000.0001) %MON g__time_tsnumber             =                    99
(PID.TID 0000.0001) %MON g__time_secondsf             =   4.2768000000000E+06
(PID.TID 0000.0001) %MON g__dynstat_g_eta_max         =   3.4243176589382E-03
(PID.TID 0000.0001) %MON g__dynstat_g_eta_min         =  -3.5544042021540E-05
(PID.TID 0000.0001) %MON g__dynstat_g_eta_mean        =  -4.1767775545214E-18
(PID.TID 0000.0001) %MON g__dynstat_g_eta_sd          =   4.3398187748910E-05
(PID.TID 0000.0001) %MON g__dynstat_g_eta_del2        =   1.5486618421640E-06
(PID.TID 0000.0001) %MON g__dynstat_g_uvel_max        =   1.4130188415482E-05
(PID.TID 0000.0001) %MON g__dynstat_g_uvel_min        =  -8.1311088418361E-05
(PID.TID 0000.0001) %MON g__dynstat_g_uvel_mean       =   1.3892494208219E-08
(PID.TID 0000.0001) %MON g__dynstat_g_uvel_sd         =   2.9575949332392E-07
(PID.TID 0000.0001) %MON g__dynstat_g_uvel_del2       =   3.9727338072555E-08
(PID.TID 0000.0001) %MON g__dynstat_g_vvel_max        =   3.5840369051719E-04
(PID.TID 0000.0001) %MON g__dynstat_g_vvel_min        =  -6.3326695641827E-05
(PID.TID 0000.0001) %MON g__dynstat_g_vvel_mean       =  -1.6965660707622E-08
(PID.TID 0000.0001) %MON g__dynstat_g_vvel_sd         =   8.5818721954174E-07
(PID.TID 0000.0001) %MON g__dynstat_g_vvel_del2       =   5.0916848010510E-08
(PID.TID 0000.0001) %MON g__dynstat_g_wvel_max        =   5.3929109760510E-08
(PID.TID 0000.0001) %MON g__dynstat_g_wvel_min        =  -3.5485132500169E-08
(PID.TID 0000.0001) %MON g__dynstat_g_wvel_mean       =  -3.6426924647387E-27
(PID.TID 0000.0001) %MON g__dynstat_g_wvel_sd         =   3.4525504231219E-10
(PID.TID 0000.0001) %MON g__dynstat_g_wvel_del2       =   7.1872468305278E-11
(PID.TID 0000.0001) %MON g__dynstat_g_theta_max       =   5.0331252654347E-01
(PID.TID 0000.0001) %MON g__dynstat_g_theta_min       =  -6.3217882732851E-04
(PID.TID 0000.0001) %MON g__dynstat_g_theta_mean      =   2.7597041964750E-06
(PID.TID 0000.0001) %MON g__dynstat_g_theta_sd        =   8.7278832007847E-04
(PID.TID 0000.0001) %MON g__dynstat_g_theta_del2      =   2.4769986688147E-05
(PID.TID 0000.0001) %MON g__dynstat_g_salt_max        =   9.2482943669257E-03
(PID.TID 0000.0001) %MON g__dynstat_g_salt_min        =  -7.7997882550638E-03
(PID.TID 0000.0001) %MON g__dynstat_g_salt_mean       =   6.2434105678750E-09
(PID.TID 0000.0001) %MON g__dynstat_g_salt_sd         =   1.7701922927808E-05
(PID.TID 0000.0001) %MON g__dynstat_g_salt_del2       =   9.1850497600620E-07
(PID.TID 0000.0001) %MON g__dynstat_g_sst_max         =   5.0331252654347E-01
(PID.TID 0000.0001) %MON g__dynstat_g_sst_min         =  -1.0038525870785E-04
(PID.TID 0000.0001) %MON g__dynstat_g_sst_mean        =   9.8598518051472E-05
(PID.TID 0000.0001) %MON g__dynstat_g_sst_sd          =   6.3974202962160E-03
(PID.TID 0000.0001) %MON g__dynstat_g_sst_del2        =   1.9806439547767E-04
(PID.TID 0000.0001) %MON g__dynstat_g_sss_max         =   9.2482943669257E-03
(PID.TID 0000.0001) %MON g__dynstat_g_sss_min         =  -7.7997882550638E-03
(PID.TID 0000.0001) %MON g__dynstat_g_sss_mean        =   6.8647316778900E-07
(PID.TID 0000.0001) %MON g__dynstat_g_sss_sd          =   1.5343315043502E-04
(PID.TID 0000.0001) %MON g__dynstat_g_sss_del2        =   9.6025337889121E-06
(PID.TID 0000.0001) %MON g__extforcing_g_qnet_max     =   0.0000000000000E+00
(PID.TID 0000.0001) %MON g__extforcing_g_qnet_min     =   0.0000000000000E+00
(PID.TID 0000.0001) %MON g__extforcing_g_qnet_mean    =   0.0000000000000E+00
(PID.TID 0000.0001) %MON g__extforcing_g_qnet_sd      =   0.0000000000000E+00
(PID.TID 0000.0001) %MON g__extforcing_g_qnet_del2    =   0.0000000000000E+00
(PID.TID 0000.0001) %MON g__extforcing_g_empmr_max    =   0.0000000000000E+00
(PID.TID 0000.0001) %MON g__extforcing_g_empmr_min    =   0.0000000000000E+00
(PID.TID 0000.0001) %MON g__extforcing_g_empmr_mean   =   0.0000000000000E+00
(PID.TID 0000.0001) %MON g__extforcing_g_empmr_sd     =   0.0000000000000E+00
(PID.TID 0000.0001) %MON g__extforcing_g_empmr_del2   =   0.0000000000000E+00
(PID.TID 0000.0001) %MON g__extforcing_g_fu_max       =   0.0000000000000E+00
(PID.TID 0000.0001) %MON g__extforcing_g_fu_min       =   0.0000000000000E+00
(PID.TID 0000.0001) %MON g__extforcing_g_fu_mean      =   0.0000000000000E+00
(PID.TID 0000.0001) %MON g__extforcing_g_fu_sd        =   0.0000000000000E+00
(PID.TID 0000.0001) %MON g__extforcing_g_fu_del2      =   0.0000000000000E+00
(PID.TID 0000.0001) %MON g__extforcing_g_fv_max       =   0.0000000000000E+00
(PID.TID 0000.0001) %MON g__extforcing_g_fv_min       =   0.0000000000000E+00
(PID.TID 0000.0001) %MON g__extforcing_g_fv_mean      =   0.0000000000000E+00
(PID.TID 0000.0001) %MON g__extforcing_g_fv_sd        =   0.0000000000000E+00
(PID.TID 0000.0001) %MON g__extforcing_g_fv_del2      =   0.0000000000000E+00
(PID.TID 0000.0001) %MON g__g_vcfl_g_uvel_max         =   2.3094312886084E-05
(PID.TID 0000.0001) %MON g__g_vcfl_g_vvel_max         =   3.4816044481683E-05
(PID.TID 0000.0001) %MON g__g_vcfl_g_wvel_max         =   4.0704189179130E-05
(PID.TID 0000.0001) %MON g__g_vcfl_g_W_hf_max         =   7.1495484355826E-05
(PID.TID 0000.0001) // =======================================================
(PID.TID 0000.0001) // End MONITOR dynamic field statistics
(PID.TID 0000.0001) // =======================================================
 cg2d: Sum(rhs),rhsMax =   5.85139774734479E-12  1.12364624062463E-02
 cg2d: Sum(rhs),rhsMax =   2.62610072576663E-12  1.02275375580449E+01
(PID.TID 0000.0001) // =======================================================
(PID.TID 0000.0001) // Begin MONITOR dynamic field statistics
(PID.TID 0000.0001) // =======================================================
(PID.TID 0000.0001) %MON g__time_tsnumber             =                   100
(PID.TID 0000.0001) %MON g__time_secondsf             =   4.3200000000000E+06
(PID.TID 0000.0001) %MON g__dynstat_g_eta_max         =   3.3946096226993E-03
(PID.TID 0000.0001) %MON g__dynstat_g_eta_min         =  -3.7521288481091E-05
(PID.TID 0000.0001) %MON g__dynstat_g_eta_mean        =  -4.2887139910899E-18
(PID.TID 0000.0001) %MON g__dynstat_g_eta_sd          =   4.3018896099746E-05
(PID.TID 0000.0001) %MON g__dynstat_g_eta_del2        =   1.5403232539776E-06
(PID.TID 0000.0001) %MON g__dynstat_g_uvel_max        =   1.7726759508406E-05
(PID.TID 0000.0001) %MON g__dynstat_g_uvel_min        =  -8.1345557474764E-05
(PID.TID 0000.0001) %MON g__dynstat_g_uvel_mean       =   1.5397745406441E-08
(PID.TID 0000.0001) %MON g__dynstat_g_uvel_sd         =   3.1527739741736E-07
(PID.TID 0000.0001) %MON g__dynstat_g_uvel_del2       =   3.9772328427138E-08
(PID.TID 0000.0001) %MON g__dynstat_g_vvel_max        =   3.5638780293315E-04
(PID.TID 0000.0001) %MON g__dynstat_g_vvel_min        =  -6.2220265890781E-05
(PID.TID 0000.0001) %MON g__dynstat_g_vvel_mean       =  -1.8007545798199E-08
(PID.TID 0000.0001) %MON g__dynstat_g_vvel_sd         =   8.5151749429586E-07
(PID.TID 0000.0001) %MON g__dynstat_g_vvel_del2       =   5.0693039666931E-08
(PID.TID 0000.0001) %MON g__dynstat_g_wvel_max        =   5.4127077252690E-08
(PID.TID 0000.0001) %MON g__dynstat_g_wvel_min        =  -3.5871913131834E-08
(PID.TID 0000.0001) %MON g__dynstat_g_wvel_mean       =   2.3659301558065E-27
(PID.TID 0000.0001) %MON g__dynstat_g_wvel_sd         =   3.4313454683939E-10
(PID.TID 0000.0001) %MON g__dynstat_g_wvel_del2       =   7.1234636258382E-11
(PID.TID 0000.0001) %MON g__dynstat_g_theta_max       =   4.9778456594741E-01
(PID.TID 0000.0001) %MON g__dynstat_g_theta_min       =  -6.5354470979035E-04
(PID.TID 0000.0001) %MON g__dynstat_g_theta_mean      =   2.7517597229508E-06
(PID.TID 0000.0001) %MON g__dynstat_g_theta_sd        =   8.6597425696033E-04
(PID.TID 0000.0001) %MON g__dynstat_g_theta_del2      =   2.4582646717028E-05
(PID.TID 0000.0001) %MON g__dynstat_g_salt_max        =   9.2442910241299E-03
(PID.TID 0000.0001) %MON g__dynstat_g_salt_min        =  -7.7925913207501E-03
(PID.TID 0000.0001) %MON g__dynstat_g_salt_mean       =   6.4062615720971E-09
(PID.TID 0000.0001) %MON g__dynstat_g_salt_sd         =   1.7695158902899E-05
(PID.TID 0000.0001) %MON g__dynstat_g_salt_del2       =   9.1937692219388E-07
(PID.TID 0000.0001) %MON g__dynstat_g_sst_max         =   4.9778456594741E-01
(PID.TID 0000.0001) %MON g__dynstat_g_sst_min         =  -9.6709438849275E-05
(PID.TID 0000.0001) %MON g__dynstat_g_sst_mean        =   9.7624318457681E-05
(PID.TID 0000.0001) %MON g__dynstat_g_sst_sd          =   6.3277520723758E-03
(PID.TID 0000.0001) %MON g__dynstat_g_sst_del2        =   1.9581432393627E-04
(PID.TID 0000.0001) %MON g__dynstat_g_sss_max         =   9.2442910241299E-03
(PID.TID 0000.0001) %MON g__dynstat_g_sss_min         =  -7.7925913207501E-03
(PID.TID 0000.0001) %MON g__dynstat_g_sss_mean        =   6.9107988274214E-07
(PID.TID 0000.0001) %MON g__dynstat_g_sss_sd          =   1.5334608957927E-04
(PID.TID 0000.0001) %MON g__dynstat_g_sss_del2        =   9.5960780259670E-06
(PID.TID 0000.0001) %MON g__extforcing_g_qnet_max     =   0.0000000000000E+00
(PID.TID 0000.0001) %MON g__extforcing_g_qnet_min     =   0.0000000000000E+00
(PID.TID 0000.0001) %MON g__extforcing_g_qnet_mean    =   0.0000000000000E+00
(PID.TID 0000.0001) %MON g__extforcing_g_qnet_sd      =   0.0000000000000E+00
(PID.TID 0000.0001) %MON g__extforcing_g_qnet_del2    =   0.0000000000000E+00
(PID.TID 0000.0001) %MON g__extforcing_g_empmr_max    =   0.0000000000000E+00
(PID.TID 0000.0001) %MON g__extforcing_g_empmr_min    =   0.0000000000000E+00
(PID.TID 0000.0001) %MON g__extforcing_g_empmr_mean   =   0.0000000000000E+00
(PID.TID 0000.0001) %MON g__extforcing_g_empmr_sd     =   0.0000000000000E+00
(PID.TID 0000.0001) %MON g__extforcing_g_empmr_del2   =   0.0000000000000E+00
(PID.TID 0000.0001) %MON g__extforcing_g_fu_max       =   0.0000000000000E+00
(PID.TID 0000.0001) %MON g__extforcing_g_fu_min       =   0.0000000000000E+00
(PID.TID 0000.0001) %MON g__extforcing_g_fu_mean      =   0.0000000000000E+00
(PID.TID 0000.0001) %MON g__extforcing_g_fu_sd        =   0.0000000000000E+00
(PID.TID 0000.0001) %MON g__extforcing_g_fu_del2      =   0.0000000000000E+00
(PID.TID 0000.0001) %MON g__extforcing_g_fv_max       =   0.0000000000000E+00
(PID.TID 0000.0001) %MON g__extforcing_g_fv_min       =   0.0000000000000E+00
(PID.TID 0000.0001) %MON g__extforcing_g_fv_mean      =   0.0000000000000E+00
(PID.TID 0000.0001) %MON g__extforcing_g_fv_sd        =   0.0000000000000E+00
(PID.TID 0000.0001) %MON g__extforcing_g_fv_del2      =   0.0000000000000E+00
(PID.TID 0000.0001) %MON g__g_vcfl_g_uvel_max         =   2.3104102930578E-05
(PID.TID 0000.0001) %MON g__g_vcfl_g_vvel_max         =   3.4620217168368E-05
(PID.TID 0000.0001) %MON g__g_vcfl_g_wvel_max         =   4.2779572184037E-05
(PID.TID 0000.0001) %MON g__g_vcfl_g_W_hf_max         =   7.1112283561380E-05
(PID.TID 0000.0001) // =======================================================
(PID.TID 0000.0001) // End MONITOR dynamic field statistics
(PID.TID 0000.0001) // =======================================================
 myIter=  100
(PID.TID 0000.0001) // Model state written, timestep       100
(PID.TID 0000.0001) 
 cg2d: Sum(rhs),rhsMax =   6.05930784402229E-12  1.11381658021631E-02
 cg2d: Sum(rhs),rhsMax =   2.56973609058520E-12  1.01758680259234E+01
(PID.TID 0000.0001) // =======================================================
(PID.TID 0000.0001) // Begin MONITOR dynamic field statistics
(PID.TID 0000.0001) // =======================================================
(PID.TID 0000.0001) %MON g__time_tsnumber             =                   101
(PID.TID 0000.0001) %MON g__time_secondsf             =   4.3632000000000E+06
(PID.TID 0000.0001) %MON g__dynstat_g_eta_max         =   3.3640171140539E-03
(PID.TID 0000.0001) %MON g__dynstat_g_eta_min         =  -3.9404409567479E-05
(PID.TID 0000.0001) %MON g__dynstat_g_eta_mean        =  -4.3795760893364E-18
(PID.TID 0000.0001) %MON g__dynstat_g_eta_sd          =   4.2628473873601E-05
(PID.TID 0000.0001) %MON g__dynstat_g_eta_del2        =   1.5304117556402E-06
(PID.TID 0000.0001) %MON g__dynstat_g_uvel_max        =   2.1762573425714E-05
(PID.TID 0000.0001) %MON g__dynstat_g_uvel_min        =  -8.1138859155992E-05
(PID.TID 0000.0001) %MON g__dynstat_g_uvel_mean       =   1.6645436764353E-08
(PID.TID 0000.0001) %MON g__dynstat_g_uvel_sd         =   3.3574257583530E-07
(PID.TID 0000.0001) %MON g__dynstat_g_uvel_del2       =   3.9691787556391E-08
(PID.TID 0000.0001) %MON g__dynstat_g_vvel_max        =   3.5413202610055E-04
(PID.TID 0000.0001) %MON g__dynstat_g_vvel_min        =  -6.1230131261847E-05
(PID.TID 0000.0001) %MON g__dynstat_g_vvel_mean       =  -1.8948987073406E-08
(PID.TID 0000.0001) %MON g__dynstat_g_vvel_sd         =   8.4403678287084E-07
(PID.TID 0000.0001) %MON g__dynstat_g_vvel_del2       =   5.0546399507858E-08
(PID.TID 0000.0001) %MON g__dynstat_g_wvel_max        =   5.4959840296806E-08
(PID.TID 0000.0001) %MON g__dynstat_g_wvel_min        =  -3.6187527432391E-08
(PID.TID 0000.0001) %MON g__dynstat_g_wvel_mean       =  -1.2914618749890E-28
(PID.TID 0000.0001) %MON g__dynstat_g_wvel_sd         =   3.4376008394922E-10
(PID.TID 0000.0001) %MON g__dynstat_g_wvel_del2       =   7.1313069997605E-11
(PID.TID 0000.0001) %MON g__dynstat_g_theta_max       =   4.9223796219785E-01
(PID.TID 0000.0001) %MON g__dynstat_g_theta_min       =  -6.7397147378526E-04
(PID.TID 0000.0001) %MON g__dynstat_g_theta_mean      =   2.7425727005572E-06
(PID.TID 0000.0001) %MON g__dynstat_g_theta_sd        =   8.5904966838999E-04
(PID.TID 0000.0001) %MON g__dynstat_g_theta_del2      =   2.4390384450988E-05
(PID.TID 0000.0001) %MON g__dynstat_g_salt_max        =   9.2378633373992E-03
(PID.TID 0000.0001) %MON g__dynstat_g_salt_min        =  -7.7824166778744E-03
(PID.TID 0000.0001) %MON g__dynstat_g_salt_mean       =   6.5590223930300E-09
(PID.TID 0000.0001) %MON g__dynstat_g_salt_sd         =   1.7682542760556E-05
(PID.TID 0000.0001) %MON g__dynstat_g_salt_del2       =   9.1982671431209E-07
(PID.TID 0000.0001) %MON g__dynstat_g_sst_max         =   4.9223796219785E-01
(PID.TID 0000.0001) %MON g__dynstat_g_sst_min         =  -9.3017667460445E-05
(PID.TID 0000.0001) %MON g__dynstat_g_sst_mean        =   9.6640069920262E-05
(PID.TID 0000.0001) %MON g__dynstat_g_sst_sd          =   6.2578015365210E-03
(PID.TID 0000.0001) %MON g__dynstat_g_sst_del2        =   1.9355736479287E-04
(PID.TID 0000.0001) %MON g__dynstat_g_sss_max         =   9.2378633373992E-03
(PID.TID 0000.0001) %MON g__dynstat_g_sss_min         =  -7.7824166778744E-03
(PID.TID 0000.0001) %MON g__dynstat_g_sss_mean        =   6.9530658619499E-07
(PID.TID 0000.0001) %MON g__dynstat_g_sss_sd          =   1.5320879807845E-04
(PID.TID 0000.0001) %MON g__dynstat_g_sss_del2        =   9.5860674484652E-06
(PID.TID 0000.0001) %MON g__extforcing_g_qnet_max     =   0.0000000000000E+00
(PID.TID 0000.0001) %MON g__extforcing_g_qnet_min     =   0.0000000000000E+00
(PID.TID 0000.0001) %MON g__extforcing_g_qnet_mean    =   0.0000000000000E+00
(PID.TID 0000.0001) %MON g__extforcing_g_qnet_sd      =   0.0000000000000E+00
(PID.TID 0000.0001) %MON g__extforcing_g_qnet_del2    =   0.0000000000000E+00
(PID.TID 0000.0001) %MON g__extforcing_g_empmr_max    =   0.0000000000000E+00
(PID.TID 0000.0001) %MON g__extforcing_g_empmr_min    =   0.0000000000000E+00
(PID.TID 0000.0001) %MON g__extforcing_g_empmr_mean   =   0.0000000000000E+00
(PID.TID 0000.0001) %MON g__extforcing_g_empmr_sd     =   0.0000000000000E+00
(PID.TID 0000.0001) %MON g__extforcing_g_empmr_del2   =   0.0000000000000E+00
(PID.TID 0000.0001) %MON g__extforcing_g_fu_max       =   0.0000000000000E+00
(PID.TID 0000.0001) %MON g__extforcing_g_fu_min       =   0.0000000000000E+00
(PID.TID 0000.0001) %MON g__extforcing_g_fu_mean      =   0.0000000000000E+00
(PID.TID 0000.0001) %MON g__extforcing_g_fu_sd        =   0.0000000000000E+00
(PID.TID 0000.0001) %MON g__extforcing_g_fu_del2      =   0.0000000000000E+00
(PID.TID 0000.0001) %MON g__extforcing_g_fv_max       =   0.0000000000000E+00
(PID.TID 0000.0001) %MON g__extforcing_g_fv_min       =   0.0000000000000E+00
(PID.TID 0000.0001) %MON g__extforcing_g_fv_mean      =   0.0000000000000E+00
(PID.TID 0000.0001) %MON g__extforcing_g_fv_sd        =   0.0000000000000E+00
(PID.TID 0000.0001) %MON g__extforcing_g_fv_del2      =   0.0000000000000E+00
(PID.TID 0000.0001) %MON g__g_vcfl_g_uvel_max         =   2.5824696515747E-05
(PID.TID 0000.0001) %MON g__g_vcfl_g_vvel_max         =   3.4401086538236E-05
(PID.TID 0000.0001) %MON g__g_vcfl_g_wvel_max         =   4.4053212449371E-05
(PID.TID 0000.0001) %MON g__g_vcfl_g_W_hf_max         =   7.1772881741954E-05
(PID.TID 0000.0001) // =======================================================
(PID.TID 0000.0001) // End MONITOR dynamic field statistics
(PID.TID 0000.0001) // =======================================================
 cg2d: Sum(rhs),rhsMax =   6.24551226741674E-12  1.10385365718167E-02
 cg2d: Sum(rhs),rhsMax =   2.72855349425782E-12  1.00619947917649E+01
(PID.TID 0000.0001) // =======================================================
(PID.TID 0000.0001) // Begin MONITOR dynamic field statistics
(PID.TID 0000.0001) // =======================================================
(PID.TID 0000.0001) %MON g__time_tsnumber             =                   102
(PID.TID 0000.0001) %MON g__time_secondsf             =   4.4064000000000E+06
(PID.TID 0000.0001) %MON g__dynstat_g_eta_max         =   3.3330564659593E-03
(PID.TID 0000.0001) %MON g__dynstat_g_eta_min         =  -4.1118591088804E-05
(PID.TID 0000.0001) %MON g__dynstat_g_eta_mean        =  -4.4420355978853E-18
(PID.TID 0000.0001) %MON g__dynstat_g_eta_sd          =   4.2233482474698E-05
(PID.TID 0000.0001) %MON g__dynstat_g_eta_del2        =   1.5189490303324E-06
(PID.TID 0000.0001) %MON g__dynstat_g_uvel_max        =   2.5634054852498E-05
(PID.TID 0000.0001) %MON g__dynstat_g_uvel_min        =  -8.6637618024267E-05
(PID.TID 0000.0001) %MON g__dynstat_g_uvel_mean       =   1.7600237357469E-08
(PID.TID 0000.0001) %MON g__dynstat_g_uvel_sd         =   3.5541414002284E-07
(PID.TID 0000.0001) %MON g__dynstat_g_uvel_del2       =   3.9871566711286E-08
(PID.TID 0000.0001) %MON g__dynstat_g_vvel_max        =   3.5166652512230E-04
(PID.TID 0000.0001) %MON g__dynstat_g_vvel_min        =  -6.0354373926083E-05
(PID.TID 0000.0001) %MON g__dynstat_g_vvel_mean       =  -1.9812088131006E-08
(PID.TID 0000.0001) %MON g__dynstat_g_vvel_sd         =   8.3594752231231E-07
(PID.TID 0000.0001) %MON g__dynstat_g_vvel_del2       =   5.0526569606378E-08
(PID.TID 0000.0001) %MON g__dynstat_g_wvel_max        =   5.6340956835147E-08
(PID.TID 0000.0001) %MON g__dynstat_g_wvel_min        =  -3.6418665019704E-08
(PID.TID 0000.0001) %MON g__dynstat_g_wvel_mean       =  -3.3088023214489E-27
(PID.TID 0000.0001) %MON g__dynstat_g_wvel_sd         =   3.4663544853683E-10
(PID.TID 0000.0001) %MON g__dynstat_g_wvel_del2       =   7.1931674514403E-11
(PID.TID 0000.0001) %MON g__dynstat_g_theta_max       =   4.8669908416353E-01
(PID.TID 0000.0001) %MON g__dynstat_g_theta_min       =  -6.9335031012353E-04
(PID.TID 0000.0001) %MON g__dynstat_g_theta_mean      =   2.7323485056782E-06
(PID.TID 0000.0001) %MON g__dynstat_g_theta_sd        =   8.5207695600266E-04
(PID.TID 0000.0001) %MON g__dynstat_g_theta_del2      =   2.4194992404760E-05
(PID.TID 0000.0001) %MON g__dynstat_g_salt_max        =   9.2298833230439E-03
(PID.TID 0000.0001) %MON g__dynstat_g_salt_min        =  -7.7700305120265E-03
(PID.TID 0000.0001) %MON g__dynstat_g_salt_mean       =   6.6938116666641E-09
(PID.TID 0000.0001) %MON g__dynstat_g_salt_sd         =   1.7665851021549E-05
(PID.TID 0000.0001) %MON g__dynstat_g_salt_del2       =   9.1993329760866E-07
(PID.TID 0000.0001) %MON g__dynstat_g_sst_max         =   4.8669908416353E-01
(PID.TID 0000.0001) %MON g__dynstat_g_sst_min         =  -8.9422246885444E-05
(PID.TID 0000.0001) %MON g__dynstat_g_sst_mean        =   9.5652106999214E-05
(PID.TID 0000.0001) %MON g__dynstat_g_sst_sd          =   6.1879046823694E-03
(PID.TID 0000.0001) %MON g__dynstat_g_sst_del2        =   1.9130244857205E-04
(PID.TID 0000.0001) %MON g__dynstat_g_sss_max         =   9.2298833230439E-03
(PID.TID 0000.0001) %MON g__dynstat_g_sss_min         =  -7.7700305120265E-03
(PID.TID 0000.0001) %MON g__dynstat_g_sss_mean        =   6.9927525001322E-07
(PID.TID 0000.0001) %MON g__dynstat_g_sss_sd          =   1.5303610631299E-04
(PID.TID 0000.0001) %MON g__dynstat_g_sss_del2        =   9.5732625094224E-06
(PID.TID 0000.0001) %MON g__extforcing_g_qnet_max     =   0.0000000000000E+00
(PID.TID 0000.0001) %MON g__extforcing_g_qnet_min     =   0.0000000000000E+00
(PID.TID 0000.0001) %MON g__extforcing_g_qnet_mean    =   0.0000000000000E+00
(PID.TID 0000.0001) %MON g__extforcing_g_qnet_sd      =   0.0000000000000E+00
(PID.TID 0000.0001) %MON g__extforcing_g_qnet_del2    =   0.0000000000000E+00
(PID.TID 0000.0001) %MON g__extforcing_g_empmr_max    =   0.0000000000000E+00
(PID.TID 0000.0001) %MON g__extforcing_g_empmr_min    =   0.0000000000000E+00
(PID.TID 0000.0001) %MON g__extforcing_g_empmr_mean   =   0.0000000000000E+00
(PID.TID 0000.0001) %MON g__extforcing_g_empmr_sd     =   0.0000000000000E+00
(PID.TID 0000.0001) %MON g__extforcing_g_empmr_del2   =   0.0000000000000E+00
(PID.TID 0000.0001) %MON g__extforcing_g_fu_max       =   0.0000000000000E+00
(PID.TID 0000.0001) %MON g__extforcing_g_fu_min       =   0.0000000000000E+00
(PID.TID 0000.0001) %MON g__extforcing_g_fu_mean      =   0.0000000000000E+00
(PID.TID 0000.0001) %MON g__extforcing_g_fu_sd        =   0.0000000000000E+00
(PID.TID 0000.0001) %MON g__extforcing_g_fu_del2      =   0.0000000000000E+00
(PID.TID 0000.0001) %MON g__extforcing_g_fv_max       =   0.0000000000000E+00
(PID.TID 0000.0001) %MON g__extforcing_g_fv_min       =   0.0000000000000E+00
(PID.TID 0000.0001) %MON g__extforcing_g_fv_mean      =   0.0000000000000E+00
(PID.TID 0000.0001) %MON g__extforcing_g_fv_sd        =   0.0000000000000E+00
(PID.TID 0000.0001) %MON g__extforcing_g_fv_del2      =   0.0000000000000E+00
(PID.TID 0000.0001) %MON g__g_vcfl_g_uvel_max         =   3.0533415240261E-05
(PID.TID 0000.0001) %MON g__g_vcfl_g_vvel_max         =   3.4161582889140E-05
(PID.TID 0000.0001) %MON g__g_vcfl_g_wvel_max         =   4.4583333256178E-05
(PID.TID 0000.0001) %MON g__g_vcfl_g_W_hf_max         =   7.3353274598133E-05
(PID.TID 0000.0001) // =======================================================
(PID.TID 0000.0001) // End MONITOR dynamic field statistics
(PID.TID 0000.0001) // =======================================================
 cg2d: Sum(rhs),rhsMax =   6.38993948594670E-12  1.09390464984404E-02
 cg2d: Sum(rhs),rhsMax =   2.42582343101816E-12  9.89195713846400E+00
(PID.TID 0000.0001) // =======================================================
(PID.TID 0000.0001) // Begin MONITOR dynamic field statistics
(PID.TID 0000.0001) // =======================================================
(PID.TID 0000.0001) %MON g__time_tsnumber             =                   103
(PID.TID 0000.0001) %MON g__time_secondsf             =   4.4496000000000E+06
(PID.TID 0000.0001) %MON g__dynstat_g_eta_max         =   3.3021842934906E-03
(PID.TID 0000.0001) %MON g__dynstat_g_eta_min         =  -4.2604689618284E-05
(PID.TID 0000.0001) %MON g__dynstat_g_eta_mean        =  -4.4688306558303E-18
(PID.TID 0000.0001) %MON g__dynstat_g_eta_sd          =   4.1839738851878E-05
(PID.TID 0000.0001) %MON g__dynstat_g_eta_del2        =   1.5063049916481E-06
(PID.TID 0000.0001) %MON g__dynstat_g_uvel_max        =   2.9242755034022E-05
(PID.TID 0000.0001) %MON g__dynstat_g_uvel_min        =  -9.8809564892477E-05
(PID.TID 0000.0001) %MON g__dynstat_g_uvel_mean       =   1.8239726924249E-08
(PID.TID 0000.0001) %MON g__dynstat_g_uvel_sd         =   3.7284984522546E-07
(PID.TID 0000.0001) %MON g__dynstat_g_uvel_del2       =   4.0080937166241E-08
(PID.TID 0000.0001) %MON g__dynstat_g_vvel_max        =   3.4902914254680E-04
(PID.TID 0000.0001) %MON g__dynstat_g_vvel_min        =  -5.9588824343810E-05
(PID.TID 0000.0001) %MON g__dynstat_g_vvel_mean       =  -2.0618456019336E-08
(PID.TID 0000.0001) %MON g__dynstat_g_vvel_sd         =   8.2747871478141E-07
(PID.TID 0000.0001) %MON g__dynstat_g_vvel_del2       =   5.0525496244164E-08
(PID.TID 0000.0001) %MON g__dynstat_g_wvel_max        =   5.8170462573993E-08
(PID.TID 0000.0001) %MON g__dynstat_g_wvel_min        =  -3.6556042604164E-08
(PID.TID 0000.0001) %MON g__dynstat_g_wvel_mean       =  -2.1930352598052E-27
(PID.TID 0000.0001) %MON g__dynstat_g_wvel_sd         =   3.5110257063510E-10
(PID.TID 0000.0001) %MON g__dynstat_g_wvel_del2       =   7.3002612115523E-11
(PID.TID 0000.0001) %MON g__dynstat_g_theta_max       =   4.8119164037353E-01
(PID.TID 0000.0001) %MON g__dynstat_g_theta_min       =  -7.1157054185737E-04
(PID.TID 0000.0001) %MON g__dynstat_g_theta_mean      =   2.7213062458458E-06
(PID.TID 0000.0001) %MON g__dynstat_g_theta_sd        =   8.4511445066394E-04
(PID.TID 0000.0001) %MON g__dynstat_g_theta_del2      =   2.3998707687655E-05
(PID.TID 0000.0001) %MON g__dynstat_g_salt_max        =   9.2211668474976E-03
(PID.TID 0000.0001) %MON g__dynstat_g_salt_min        =  -7.7561678463438E-03
(PID.TID 0000.0001) %MON g__dynstat_g_salt_mean       =   6.8036390246089E-09
(PID.TID 0000.0001) %MON g__dynstat_g_salt_sd         =   1.7646770278965E-05
(PID.TID 0000.0001) %MON g__dynstat_g_salt_del2       =   9.1987204485726E-07
(PID.TID 0000.0001) %MON g__dynstat_g_sst_max         =   4.8119164037353E-01
(PID.TID 0000.0001) %MON g__dynstat_g_sst_min         =  -8.6031733860084E-05
(PID.TID 0000.0001) %MON g__dynstat_g_sst_mean        =   9.4664735095741E-05
(PID.TID 0000.0001) %MON g__dynstat_g_sst_sd          =   6.1183641196707E-03
(PID.TID 0000.0001) %MON g__dynstat_g_sst_del2        =   1.8906125105365E-04
(PID.TID 0000.0001) %MON g__dynstat_g_sss_max         =   9.2211668474976E-03
(PID.TID 0000.0001) %MON g__dynstat_g_sss_min         =  -7.7561678463438E-03
(PID.TID 0000.0001) %MON g__dynstat_g_sss_mean        =   7.0283313899720E-07
(PID.TID 0000.0001) %MON g__dynstat_g_sss_sd          =   1.5284210658392E-04
(PID.TID 0000.0001) %MON g__dynstat_g_sss_del2        =   9.5590358618304E-06
(PID.TID 0000.0001) %MON g__extforcing_g_qnet_max     =   0.0000000000000E+00
(PID.TID 0000.0001) %MON g__extforcing_g_qnet_min     =   0.0000000000000E+00
(PID.TID 0000.0001) %MON g__extforcing_g_qnet_mean    =   0.0000000000000E+00
(PID.TID 0000.0001) %MON g__extforcing_g_qnet_sd      =   0.0000000000000E+00
(PID.TID 0000.0001) %MON g__extforcing_g_qnet_del2    =   0.0000000000000E+00
(PID.TID 0000.0001) %MON g__extforcing_g_empmr_max    =   0.0000000000000E+00
(PID.TID 0000.0001) %MON g__extforcing_g_empmr_min    =   0.0000000000000E+00
(PID.TID 0000.0001) %MON g__extforcing_g_empmr_mean   =   0.0000000000000E+00
(PID.TID 0000.0001) %MON g__extforcing_g_empmr_sd     =   0.0000000000000E+00
(PID.TID 0000.0001) %MON g__extforcing_g_empmr_del2   =   0.0000000000000E+00
(PID.TID 0000.0001) %MON g__extforcing_g_fu_max       =   0.0000000000000E+00
(PID.TID 0000.0001) %MON g__extforcing_g_fu_min       =   0.0000000000000E+00
(PID.TID 0000.0001) %MON g__extforcing_g_fu_mean      =   0.0000000000000E+00
(PID.TID 0000.0001) %MON g__extforcing_g_fu_sd        =   0.0000000000000E+00
(PID.TID 0000.0001) %MON g__extforcing_g_fu_del2      =   0.0000000000000E+00
(PID.TID 0000.0001) %MON g__extforcing_g_fv_max       =   0.0000000000000E+00
(PID.TID 0000.0001) %MON g__extforcing_g_fv_min       =   0.0000000000000E+00
(PID.TID 0000.0001) %MON g__extforcing_g_fv_mean      =   0.0000000000000E+00
(PID.TID 0000.0001) %MON g__extforcing_g_fv_sd        =   0.0000000000000E+00
(PID.TID 0000.0001) %MON g__extforcing_g_fv_del2      =   0.0000000000000E+00
(PID.TID 0000.0001) %MON g__g_vcfl_g_uvel_max         =   3.4823135069647E-05
(PID.TID 0000.0001) %MON g__g_vcfl_g_vvel_max         =   3.3905382321195E-05
(PID.TID 0000.0001) %MON g__g_vcfl_g_wvel_max         =   4.4455928354905E-05
(PID.TID 0000.0001) %MON g__g_vcfl_g_W_hf_max         =   7.5706937488331E-05
(PID.TID 0000.0001) // =======================================================
(PID.TID 0000.0001) // End MONITOR dynamic field statistics
(PID.TID 0000.0001) // =======================================================
 cg2d: Sum(rhs),rhsMax =   6.48718782990008E-12  1.08409441627946E-02
 cg2d: Sum(rhs),rhsMax =   2.82780049376541E-12  9.67292361771449E+00
(PID.TID 0000.0001) // =======================================================
(PID.TID 0000.0001) // Begin MONITOR dynamic field statistics
(PID.TID 0000.0001) // =======================================================
(PID.TID 0000.0001) %MON g__time_tsnumber             =                   104
(PID.TID 0000.0001) %MON g__time_secondsf             =   4.4928000000000E+06
(PID.TID 0000.0001) %MON g__dynstat_g_eta_max         =   3.2717838732843E-03
(PID.TID 0000.0001) %MON g__dynstat_g_eta_min         =  -4.3820158301460E-05
(PID.TID 0000.0001) %MON g__dynstat_g_eta_mean        =  -4.4604973185108E-18
(PID.TID 0000.0001) %MON g__dynstat_g_eta_sd          =   4.1452143087146E-05
(PID.TID 0000.0001) %MON g__dynstat_g_eta_del2        =   1.4930383972541E-06
(PID.TID 0000.0001) %MON g__dynstat_g_uvel_max        =   3.2498491739539E-05
(PID.TID 0000.0001) %MON g__dynstat_g_uvel_min        =  -1.0945704474332E-04
(PID.TID 0000.0001) %MON g__dynstat_g_uvel_mean       =   1.8554798847424E-08
(PID.TID 0000.0001) %MON g__dynstat_g_uvel_sd         =   3.8692278254223E-07
(PID.TID 0000.0001) %MON g__dynstat_g_uvel_del2       =   4.0367530952552E-08
(PID.TID 0000.0001) %MON g__dynstat_g_vvel_max        =   3.4626385826702E-04
(PID.TID 0000.0001) %MON g__dynstat_g_vvel_min        =  -5.8927959497931E-05
(PID.TID 0000.0001) %MON g__dynstat_g_vvel_mean       =  -2.1386680206522E-08
(PID.TID 0000.0001) %MON g__dynstat_g_vvel_sd         =   8.1887022423317E-07
(PID.TID 0000.0001) %MON g__dynstat_g_vvel_del2       =   5.0583291686025E-08
(PID.TID 0000.0001) %MON g__dynstat_g_wvel_max        =   6.0341584775959E-08
(PID.TID 0000.0001) %MON g__dynstat_g_wvel_min        =  -3.6594674368416E-08
(PID.TID 0000.0001) %MON g__dynstat_g_wvel_mean       =  -4.1680269564348E-27
(PID.TID 0000.0001) %MON g__dynstat_g_wvel_sd         =   3.5644487989825E-10
(PID.TID 0000.0001) %MON g__dynstat_g_wvel_del2       =   7.4224037538566E-11
(PID.TID 0000.0001) %MON g__dynstat_g_theta_max       =   4.7573568893476E-01
(PID.TID 0000.0001) %MON g__dynstat_g_theta_min       =  -7.2852104407097E-04
(PID.TID 0000.0001) %MON g__dynstat_g_theta_mean      =   2.7096679206422E-06
(PID.TID 0000.0001) %MON g__dynstat_g_theta_sd        =   8.3821379045019E-04
(PID.TID 0000.0001) %MON g__dynstat_g_theta_del2      =   2.3804034386099E-05
(PID.TID 0000.0001) %MON g__dynstat_g_salt_max        =   9.2124390113588E-03
(PID.TID 0000.0001) %MON g__dynstat_g_salt_min        =  -7.7414937233369E-03
(PID.TID 0000.0001) %MON g__dynstat_g_salt_mean       =   6.8827755300364E-09
(PID.TID 0000.0001) %MON g__dynstat_g_salt_sd         =   1.7626817507330E-05
(PID.TID 0000.0001) %MON g__dynstat_g_salt_del2       =   9.1976899687176E-07
(PID.TID 0000.0001) %MON g__dynstat_g_sst_max         =   4.7573568893476E-01
(PID.TID 0000.0001) %MON g__dynstat_g_sst_min         =  -8.2946931632960E-05
(PID.TID 0000.0001) %MON g__dynstat_g_sst_mean        =   9.3683756751604E-05
(PID.TID 0000.0001) %MON g__dynstat_g_sst_sd          =   6.0494363139515E-03
(PID.TID 0000.0001) %MON g__dynstat_g_sst_del2        =   1.8684735576244E-04
(PID.TID 0000.0001) %MON g__dynstat_g_sss_max         =   9.2124390113588E-03
(PID.TID 0000.0001) %MON g__dynstat_g_sss_min         =  -7.7414937233369E-03
(PID.TID 0000.0001) %MON g__dynstat_g_sss_mean        =   7.0634536592981E-07
(PID.TID 0000.0001) %MON g__dynstat_g_sss_sd          =   1.5263948647884E-04
(PID.TID 0000.0001) %MON g__dynstat_g_sss_del2        =   9.5447023929249E-06
(PID.TID 0000.0001) %MON g__extforcing_g_qnet_max     =   0.0000000000000E+00
(PID.TID 0000.0001) %MON g__extforcing_g_qnet_min     =   0.0000000000000E+00
(PID.TID 0000.0001) %MON g__extforcing_g_qnet_mean    =   0.0000000000000E+00
(PID.TID 0000.0001) %MON g__extforcing_g_qnet_sd      =   0.0000000000000E+00
(PID.TID 0000.0001) %MON g__extforcing_g_qnet_del2    =   0.0000000000000E+00
(PID.TID 0000.0001) %MON g__extforcing_g_empmr_max    =   0.0000000000000E+00
(PID.TID 0000.0001) %MON g__extforcing_g_empmr_min    =   0.0000000000000E+00
(PID.TID 0000.0001) %MON g__extforcing_g_empmr_mean   =   0.0000000000000E+00
(PID.TID 0000.0001) %MON g__extforcing_g_empmr_sd     =   0.0000000000000E+00
(PID.TID 0000.0001) %MON g__extforcing_g_empmr_del2   =   0.0000000000000E+00
(PID.TID 0000.0001) %MON g__extforcing_g_fu_max       =   0.0000000000000E+00
(PID.TID 0000.0001) %MON g__extforcing_g_fu_min       =   0.0000000000000E+00
(PID.TID 0000.0001) %MON g__extforcing_g_fu_mean      =   0.0000000000000E+00
(PID.TID 0000.0001) %MON g__extforcing_g_fu_sd        =   0.0000000000000E+00
(PID.TID 0000.0001) %MON g__extforcing_g_fu_del2      =   0.0000000000000E+00
(PID.TID 0000.0001) %MON g__extforcing_g_fv_max       =   0.0000000000000E+00
(PID.TID 0000.0001) %MON g__extforcing_g_fv_min       =   0.0000000000000E+00
(PID.TID 0000.0001) %MON g__extforcing_g_fv_mean      =   0.0000000000000E+00
(PID.TID 0000.0001) %MON g__extforcing_g_fv_sd        =   0.0000000000000E+00
(PID.TID 0000.0001) %MON g__extforcing_g_fv_del2      =   0.0000000000000E+00
(PID.TID 0000.0001) %MON g__g_vcfl_g_uvel_max         =   3.8575591923402E-05
(PID.TID 0000.0001) %MON g__g_vcfl_g_vvel_max         =   3.3636757128329E-05
(PID.TID 0000.0001) %MON g__g_vcfl_g_wvel_max         =   4.3776605097163E-05
(PID.TID 0000.0001) %MON g__g_vcfl_g_W_hf_max         =   7.8675128661323E-05
(PID.TID 0000.0001) // =======================================================
(PID.TID 0000.0001) // End MONITOR dynamic field statistics
(PID.TID 0000.0001) // =======================================================
 cg2d: Sum(rhs),rhsMax =   6.53504185919233E-12  1.07452233020230E-02
 cg2d: Sum(rhs),rhsMax =   2.33942726302061E-12  9.41296214456248E+00
(PID.TID 0000.0001) // =======================================================
(PID.TID 0000.0001) // Begin MONITOR dynamic field statistics
(PID.TID 0000.0001) // =======================================================
(PID.TID 0000.0001) %MON g__time_tsnumber             =                   105
(PID.TID 0000.0001) %MON g__time_secondsf             =   4.5360000000000E+06
(PID.TID 0000.0001) %MON g__dynstat_g_eta_max         =   3.2421566765872E-03
(PID.TID 0000.0001) %MON g__dynstat_g_eta_min         =  -4.4738487218350E-05
(PID.TID 0000.0001) %MON g__dynstat_g_eta_mean        =  -4.4247134613837E-18
(PID.TID 0000.0001) %MON g__dynstat_g_eta_sd          =   4.1074566617893E-05
(PID.TID 0000.0001) %MON g__dynstat_g_eta_del2        =   1.4792475533221E-06
(PID.TID 0000.0001) %MON g__dynstat_g_uvel_max        =   3.5322215069304E-05
(PID.TID 0000.0001) %MON g__dynstat_g_uvel_min        =  -1.1829246518127E-04
(PID.TID 0000.0001) %MON g__dynstat_g_uvel_mean       =   1.8549535376703E-08
(PID.TID 0000.0001) %MON g__dynstat_g_uvel_sd         =   3.9680998479189E-07
(PID.TID 0000.0001) %MON g__dynstat_g_uvel_del2       =   4.0564067060524E-08
(PID.TID 0000.0001) %MON g__dynstat_g_vvel_max        =   3.4341900195837E-04
(PID.TID 0000.0001) %MON g__dynstat_g_vvel_min        =  -5.8365498169460E-05
(PID.TID 0000.0001) %MON g__dynstat_g_vvel_mean       =  -2.2130112281949E-08
(PID.TID 0000.0001) %MON g__dynstat_g_vvel_sd         =   8.1035644205177E-07
(PID.TID 0000.0001) %MON g__dynstat_g_vvel_del2       =   5.0716897861471E-08
(PID.TID 0000.0001) %MON g__dynstat_g_wvel_max        =   6.2746892458585E-08
(PID.TID 0000.0001) %MON g__dynstat_g_wvel_min        =  -3.7860230387802E-08
(PID.TID 0000.0001) %MON g__dynstat_g_wvel_mean       =  -4.4655619229592E-27
(PID.TID 0000.0001) %MON g__dynstat_g_wvel_sd         =   3.6198821415775E-10
(PID.TID 0000.0001) %MON g__dynstat_g_wvel_del2       =   7.5461910463151E-11
(PID.TID 0000.0001) %MON g__dynstat_g_theta_max       =   4.7034685725828E-01
(PID.TID 0000.0001) %MON g__dynstat_g_theta_min       =  -7.4409318627095E-04
(PID.TID 0000.0001) %MON g__dynstat_g_theta_mean      =   2.6976470118171E-06
(PID.TID 0000.0001) %MON g__dynstat_g_theta_sd        =   8.3141771058736E-04
(PID.TID 0000.0001) %MON g__dynstat_g_theta_del2      =   2.3612295443523E-05
(PID.TID 0000.0001) %MON g__dynstat_g_salt_max        =   9.2043036765192E-03
(PID.TID 0000.0001) %MON g__dynstat_g_salt_min        =  -7.7265683895805E-03
(PID.TID 0000.0001) %MON g__dynstat_g_salt_mean       =   6.9269410208157E-09
(PID.TID 0000.0001) %MON g__dynstat_g_salt_sd         =   1.7607266694058E-05
(PID.TID 0000.0001) %MON g__dynstat_g_salt_del2       =   9.1972751409636E-07
(PID.TID 0000.0001) %MON g__dynstat_g_sst_max         =   4.7034685725828E-01
(PID.TID 0000.0001) %MON g__dynstat_g_sst_min         =  -8.0257446970859E-05
(PID.TID 0000.0001) %MON g__dynstat_g_sst_mean        =   9.2712701159817E-05
(PID.TID 0000.0001) %MON g__dynstat_g_sst_sd          =   5.9813215860850E-03
(PID.TID 0000.0001) %MON g__dynstat_g_sst_del2        =   1.8466520933823E-04
(PID.TID 0000.0001) %MON g__dynstat_g_sss_max         =   9.2043036765192E-03
(PID.TID 0000.0001) %MON g__dynstat_g_sss_min         =  -7.7265683895805E-03
(PID.TID 0000.0001) %MON g__dynstat_g_sss_mean        =   7.1000563313569E-07
(PID.TID 0000.0001) %MON g__dynstat_g_sss_sd          =   1.5243892445730E-04
(PID.TID 0000.0001) %MON g__dynstat_g_sss_del2        =   9.5310813687410E-06
(PID.TID 0000.0001) %MON g__extforcing_g_qnet_max     =   0.0000000000000E+00
(PID.TID 0000.0001) %MON g__extforcing_g_qnet_min     =   0.0000000000000E+00
(PID.TID 0000.0001) %MON g__extforcing_g_qnet_mean    =   0.0000000000000E+00
(PID.TID 0000.0001) %MON g__extforcing_g_qnet_sd      =   0.0000000000000E+00
(PID.TID 0000.0001) %MON g__extforcing_g_qnet_del2    =   0.0000000000000E+00
(PID.TID 0000.0001) %MON g__extforcing_g_empmr_max    =   0.0000000000000E+00
(PID.TID 0000.0001) %MON g__extforcing_g_empmr_min    =   0.0000000000000E+00
(PID.TID 0000.0001) %MON g__extforcing_g_empmr_mean   =   0.0000000000000E+00
(PID.TID 0000.0001) %MON g__extforcing_g_empmr_sd     =   0.0000000000000E+00
(PID.TID 0000.0001) %MON g__extforcing_g_empmr_del2   =   0.0000000000000E+00
(PID.TID 0000.0001) %MON g__extforcing_g_fu_max       =   0.0000000000000E+00
(PID.TID 0000.0001) %MON g__extforcing_g_fu_min       =   0.0000000000000E+00
(PID.TID 0000.0001) %MON g__extforcing_g_fu_mean      =   0.0000000000000E+00
(PID.TID 0000.0001) %MON g__extforcing_g_fu_sd        =   0.0000000000000E+00
(PID.TID 0000.0001) %MON g__extforcing_g_fu_del2      =   0.0000000000000E+00
(PID.TID 0000.0001) %MON g__extforcing_g_fv_max       =   0.0000000000000E+00
(PID.TID 0000.0001) %MON g__extforcing_g_fv_min       =   0.0000000000000E+00
(PID.TID 0000.0001) %MON g__extforcing_g_fv_mean      =   0.0000000000000E+00
(PID.TID 0000.0001) %MON g__extforcing_g_fv_sd        =   0.0000000000000E+00
(PID.TID 0000.0001) %MON g__extforcing_g_fv_del2      =   0.0000000000000E+00
(PID.TID 0000.0001) %MON g__g_vcfl_g_uvel_max         =   4.1689430544619E-05
(PID.TID 0000.0001) %MON g__g_vcfl_g_vvel_max         =   3.3360402150949E-05
(PID.TID 0000.0001) %MON g__g_vcfl_g_wvel_max         =   4.2663163243749E-05
(PID.TID 0000.0001) %MON g__g_vcfl_g_W_hf_max         =   8.2096202361011E-05
(PID.TID 0000.0001) // =======================================================
(PID.TID 0000.0001) // End MONITOR dynamic field statistics
(PID.TID 0000.0001) // =======================================================
 cg2d: Sum(rhs),rhsMax =   6.53636409117552E-12  1.06526050144142E-02
 cg2d: Sum(rhs),rhsMax =   2.53150278517467E-12  9.12079410559005E+00
(PID.TID 0000.0001) // =======================================================
(PID.TID 0000.0001) // Begin MONITOR dynamic field statistics
(PID.TID 0000.0001) // =======================================================
(PID.TID 0000.0001) %MON g__time_tsnumber             =                   106
(PID.TID 0000.0001) %MON g__time_secondsf             =   4.5792000000000E+06
(PID.TID 0000.0001) %MON g__dynstat_g_eta_max         =   3.2135183984320E-03
(PID.TID 0000.0001) %MON g__dynstat_g_eta_min         =  -4.5347501328562E-05
(PID.TID 0000.0001) %MON g__dynstat_g_eta_mean        =  -4.3729844749374E-18
(PID.TID 0000.0001) %MON g__dynstat_g_eta_sd          =   4.0709794230164E-05
(PID.TID 0000.0001) %MON g__dynstat_g_eta_del2        =   1.4660068841238E-06
(PID.TID 0000.0001) %MON g__dynstat_g_uvel_max        =   3.7648651921046E-05
(PID.TID 0000.0001) %MON g__dynstat_g_uvel_min        =  -1.2508649019704E-04
(PID.TID 0000.0001) %MON g__dynstat_g_uvel_mean       =   1.8240587066163E-08
(PID.TID 0000.0001) %MON g__dynstat_g_uvel_sd         =   4.0197570191533E-07
(PID.TID 0000.0001) %MON g__dynstat_g_uvel_del2       =   4.0655826290827E-08
(PID.TID 0000.0001) %MON g__dynstat_g_vvel_max        =   3.4054532002734E-04
(PID.TID 0000.0001) %MON g__dynstat_g_vvel_min        =  -5.7894683557535E-05
(PID.TID 0000.0001) %MON g__dynstat_g_vvel_mean       =  -2.2855235743997E-08
(PID.TID 0000.0001) %MON g__dynstat_g_vvel_sd         =   8.0215077923961E-07
(PID.TID 0000.0001) %MON g__dynstat_g_vvel_del2       =   5.0995782490899E-08
(PID.TID 0000.0001) %MON g__dynstat_g_wvel_max        =   6.5283626942388E-08
(PID.TID 0000.0001) %MON g__dynstat_g_wvel_min        =  -4.0148475489438E-08
(PID.TID 0000.0001) %MON g__dynstat_g_wvel_mean       =  -2.7767742773519E-27
(PID.TID 0000.0001) %MON g__dynstat_g_wvel_sd         =   3.6716767305323E-10
(PID.TID 0000.0001) %MON g__dynstat_g_wvel_del2       =   7.6623668731110E-11
(PID.TID 0000.0001) %MON g__dynstat_g_theta_max       =   4.6503579004747E-01
(PID.TID 0000.0001) %MON g__dynstat_g_theta_min       =  -7.5818461197366E-04
(PID.TID 0000.0001) %MON g__dynstat_g_theta_mean      =   2.6854384842083E-06
(PID.TID 0000.0001) %MON g__dynstat_g_theta_sd        =   8.2475829674080E-04
(PID.TID 0000.0001) %MON g__dynstat_g_theta_del2      =   2.3421845651966E-05
(PID.TID 0000.0001) %MON g__dynstat_g_salt_max        =   9.1972177402609E-03
(PID.TID 0000.0001) %MON g__dynstat_g_salt_min        =  -7.7118178274918E-03
(PID.TID 0000.0001) %MON g__dynstat_g_salt_mean       =   6.9334700028002E-09
(PID.TID 0000.0001) %MON g__dynstat_g_salt_sd         =   1.7589075980755E-05
(PID.TID 0000.0001) %MON g__dynstat_g_salt_del2       =   9.1946203336712E-07
(PID.TID 0000.0001) %MON g__dynstat_g_sst_max         =   4.6503579004747E-01
(PID.TID 0000.0001) %MON g__dynstat_g_sst_min         =  -7.8038943930794E-05
(PID.TID 0000.0001) %MON g__dynstat_g_sst_mean        =   9.1743007484893E-05
(PID.TID 0000.0001) %MON g__dynstat_g_sst_sd          =   5.9141570573528E-03
(PID.TID 0000.0001) %MON g__dynstat_g_sst_del2        =   1.8249597880405E-04
(PID.TID 0000.0001) %MON g__dynstat_g_sss_max         =   9.1972177402609E-03
(PID.TID 0000.0001) %MON g__dynstat_g_sss_min         =  -7.7118178274918E-03
(PID.TID 0000.0001) %MON g__dynstat_g_sss_mean        =   7.1233735279686E-07
(PID.TID 0000.0001) %MON g__dynstat_g_sss_sd          =   1.5224852615059E-04
(PID.TID 0000.0001) %MON g__dynstat_g_sss_del2        =   9.5154652252710E-06
(PID.TID 0000.0001) %MON g__extforcing_g_qnet_max     =   0.0000000000000E+00
(PID.TID 0000.0001) %MON g__extforcing_g_qnet_min     =   0.0000000000000E+00
(PID.TID 0000.0001) %MON g__extforcing_g_qnet_mean    =   0.0000000000000E+00
(PID.TID 0000.0001) %MON g__extforcing_g_qnet_sd      =   0.0000000000000E+00
(PID.TID 0000.0001) %MON g__extforcing_g_qnet_del2    =   0.0000000000000E+00
(PID.TID 0000.0001) %MON g__extforcing_g_empmr_max    =   0.0000000000000E+00
(PID.TID 0000.0001) %MON g__extforcing_g_empmr_min    =   0.0000000000000E+00
(PID.TID 0000.0001) %MON g__extforcing_g_empmr_mean   =   0.0000000000000E+00
(PID.TID 0000.0001) %MON g__extforcing_g_empmr_sd     =   0.0000000000000E+00
(PID.TID 0000.0001) %MON g__extforcing_g_empmr_del2   =   0.0000000000000E+00
(PID.TID 0000.0001) %MON g__extforcing_g_fu_max       =   0.0000000000000E+00
(PID.TID 0000.0001) %MON g__extforcing_g_fu_min       =   0.0000000000000E+00
(PID.TID 0000.0001) %MON g__extforcing_g_fu_mean      =   0.0000000000000E+00
(PID.TID 0000.0001) %MON g__extforcing_g_fu_sd        =   0.0000000000000E+00
(PID.TID 0000.0001) %MON g__extforcing_g_fu_del2      =   0.0000000000000E+00
(PID.TID 0000.0001) %MON g__extforcing_g_fv_max       =   0.0000000000000E+00
(PID.TID 0000.0001) %MON g__extforcing_g_fv_min       =   0.0000000000000E+00
(PID.TID 0000.0001) %MON g__extforcing_g_fv_mean      =   0.0000000000000E+00
(PID.TID 0000.0001) %MON g__extforcing_g_fv_sd        =   0.0000000000000E+00
(PID.TID 0000.0001) %MON g__extforcing_g_fv_del2      =   0.0000000000000E+00
(PID.TID 0000.0001) %MON g__g_vcfl_g_uvel_max         =   4.4083826785997E-05
(PID.TID 0000.0001) %MON g__g_vcfl_g_vvel_max         =   3.3081246995508E-05
(PID.TID 0000.0001) %MON g__g_vcfl_g_wvel_max         =   4.1239120543533E-05
(PID.TID 0000.0001) %MON g__g_vcfl_g_W_hf_max         =   8.5813551863412E-05
(PID.TID 0000.0001) // =======================================================
(PID.TID 0000.0001) // End MONITOR dynamic field statistics
(PID.TID 0000.0001) // =======================================================
 cg2d: Sum(rhs),rhsMax =   6.51687256540473E-12  1.05635320225821E-02
 cg2d: Sum(rhs),rhsMax =   2.63028487879069E-12  8.86256540630887E+00
(PID.TID 0000.0001) // =======================================================
(PID.TID 0000.0001) // Begin MONITOR dynamic field statistics
(PID.TID 0000.0001) // =======================================================
(PID.TID 0000.0001) %MON g__time_tsnumber             =                   107
(PID.TID 0000.0001) %MON g__time_secondsf             =   4.6224000000000E+06
(PID.TID 0000.0001) %MON g__dynstat_g_eta_max         =   3.1859987478860E-03
(PID.TID 0000.0001) %MON g__dynstat_g_eta_min         =  -4.5646885170774E-05
(PID.TID 0000.0001) %MON g__dynstat_g_eta_mean        =  -4.3156699207134E-18
(PID.TID 0000.0001) %MON g__dynstat_g_eta_sd          =   4.0359512610127E-05
(PID.TID 0000.0001) %MON g__dynstat_g_eta_del2        =   1.4534537095139E-06
(PID.TID 0000.0001) %MON g__dynstat_g_uvel_max        =   3.9428607573877E-05
(PID.TID 0000.0001) %MON g__dynstat_g_uvel_min        =  -1.2967624054136E-04
(PID.TID 0000.0001) %MON g__dynstat_g_uvel_mean       =   1.7656068231347E-08
(PID.TID 0000.0001) %MON g__dynstat_g_uvel_sd         =   4.0215688474290E-07
(PID.TID 0000.0001) %MON g__dynstat_g_uvel_del2       =   4.0629373464427E-08
(PID.TID 0000.0001) %MON g__dynstat_g_vvel_max        =   3.3769398669700E-04
(PID.TID 0000.0001) %MON g__dynstat_g_vvel_min        =  -5.7508278692380E-05
(PID.TID 0000.0001) %MON g__dynstat_g_vvel_mean       =  -2.3560689915302E-08
(PID.TID 0000.0001) %MON g__dynstat_g_vvel_sd         =   7.9443248112123E-07
(PID.TID 0000.0001) %MON g__dynstat_g_vvel_del2       =   5.1302934228393E-08
(PID.TID 0000.0001) %MON g__dynstat_g_wvel_max        =   6.7858076231995E-08
(PID.TID 0000.0001) %MON g__dynstat_g_wvel_min        =  -4.1418520613467E-08
(PID.TID 0000.0001) %MON g__dynstat_g_wvel_mean       =   3.5555450374021E-27
(PID.TID 0000.0001) %MON g__dynstat_g_wvel_sd         =   3.7156410732429E-10
(PID.TID 0000.0001) %MON g__dynstat_g_wvel_del2       =   7.7643205745404E-11
(PID.TID 0000.0001) %MON g__dynstat_g_theta_max       =   4.5980785195033E-01
(PID.TID 0000.0001) %MON g__dynstat_g_theta_min       =  -7.7070326068016E-04
(PID.TID 0000.0001) %MON g__dynstat_g_theta_mean      =   2.6732138070020E-06
(PID.TID 0000.0001) %MON g__dynstat_g_theta_sd        =   8.1825584925217E-04
(PID.TID 0000.0001) %MON g__dynstat_g_theta_del2      =   2.3235643922140E-05
(PID.TID 0000.0001) %MON g__dynstat_g_salt_max        =   9.1914732032711E-03
(PID.TID 0000.0001) %MON g__dynstat_g_salt_min        =  -7.6975112472448E-03
(PID.TID 0000.0001) %MON g__dynstat_g_salt_mean       =   6.9018022848727E-09
(PID.TID 0000.0001) %MON g__dynstat_g_salt_sd         =   1.7572882527291E-05
(PID.TID 0000.0001) %MON g__dynstat_g_salt_del2       =   9.1929892726705E-07
(PID.TID 0000.0001) %MON g__dynstat_g_sst_max         =   4.5980785195033E-01
(PID.TID 0000.0001) %MON g__dynstat_g_sst_min         =  -7.6351072384550E-05
(PID.TID 0000.0001) %MON g__dynstat_g_sst_mean        =   9.0785186656442E-05
(PID.TID 0000.0001) %MON g__dynstat_g_sst_sd          =   5.8480125344024E-03
(PID.TID 0000.0001) %MON g__dynstat_g_sst_del2        =   1.8036482730376E-04
(PID.TID 0000.0001) %MON g__dynstat_g_sss_max         =   9.1914732032711E-03
(PID.TID 0000.0001) %MON g__dynstat_g_sss_min         =  -7.6975112472448E-03
(PID.TID 0000.0001) %MON g__dynstat_g_sss_mean        =   7.1436415658432E-07
(PID.TID 0000.0001) %MON g__dynstat_g_sss_sd          =   1.5207361829122E-04
(PID.TID 0000.0001) %MON g__dynstat_g_sss_del2        =   9.5014572360837E-06
(PID.TID 0000.0001) %MON g__extforcing_g_qnet_max     =   0.0000000000000E+00
(PID.TID 0000.0001) %MON g__extforcing_g_qnet_min     =   0.0000000000000E+00
(PID.TID 0000.0001) %MON g__extforcing_g_qnet_mean    =   0.0000000000000E+00
(PID.TID 0000.0001) %MON g__extforcing_g_qnet_sd      =   0.0000000000000E+00
(PID.TID 0000.0001) %MON g__extforcing_g_qnet_del2    =   0.0000000000000E+00
(PID.TID 0000.0001) %MON g__extforcing_g_empmr_max    =   0.0000000000000E+00
(PID.TID 0000.0001) %MON g__extforcing_g_empmr_min    =   0.0000000000000E+00
(PID.TID 0000.0001) %MON g__extforcing_g_empmr_mean   =   0.0000000000000E+00
(PID.TID 0000.0001) %MON g__extforcing_g_empmr_sd     =   0.0000000000000E+00
(PID.TID 0000.0001) %MON g__extforcing_g_empmr_del2   =   0.0000000000000E+00
(PID.TID 0000.0001) %MON g__extforcing_g_fu_max       =   0.0000000000000E+00
(PID.TID 0000.0001) %MON g__extforcing_g_fu_min       =   0.0000000000000E+00
(PID.TID 0000.0001) %MON g__extforcing_g_fu_mean      =   0.0000000000000E+00
(PID.TID 0000.0001) %MON g__extforcing_g_fu_sd        =   0.0000000000000E+00
(PID.TID 0000.0001) %MON g__extforcing_g_fu_del2      =   0.0000000000000E+00
(PID.TID 0000.0001) %MON g__extforcing_g_fv_max       =   0.0000000000000E+00
(PID.TID 0000.0001) %MON g__extforcing_g_fv_min       =   0.0000000000000E+00
(PID.TID 0000.0001) %MON g__extforcing_g_fv_mean      =   0.0000000000000E+00
(PID.TID 0000.0001) %MON g__extforcing_g_fv_sd        =   0.0000000000000E+00
(PID.TID 0000.0001) %MON g__extforcing_g_fv_del2      =   0.0000000000000E+00
(PID.TID 0000.0001) %MON g__g_vcfl_g_uvel_max         =   4.5701377641019E-05
(PID.TID 0000.0001) %MON g__g_vcfl_g_vvel_max         =   3.2804262827410E-05
(PID.TID 0000.0001) %MON g__g_vcfl_g_wvel_max         =   3.9628296786196E-05
(PID.TID 0000.0001) %MON g__g_vcfl_g_W_hf_max         =   8.9682021328205E-05
(PID.TID 0000.0001) // =======================================================
(PID.TID 0000.0001) // End MONITOR dynamic field statistics
(PID.TID 0000.0001) // =======================================================
 cg2d: Sum(rhs),rhsMax =   6.48112955718792E-12  1.04781734749534E-02
 cg2d: Sum(rhs),rhsMax =   2.67112720830909E-12  8.89641373753400E+00
(PID.TID 0000.0001) // =======================================================
(PID.TID 0000.0001) // Begin MONITOR dynamic field statistics
(PID.TID 0000.0001) // =======================================================
(PID.TID 0000.0001) %MON g__time_tsnumber             =                   108
(PID.TID 0000.0001) %MON g__time_secondsf             =   4.6656000000000E+06
(PID.TID 0000.0001) %MON g__dynstat_g_eta_max         =   3.1596443424106E-03
(PID.TID 0000.0001) %MON g__dynstat_g_eta_min         =  -4.5645357239362E-05
(PID.TID 0000.0001) %MON g__dynstat_g_eta_mean        =  -4.2550380697256E-18
(PID.TID 0000.0001) %MON g__dynstat_g_eta_sd          =   4.0024339370769E-05
(PID.TID 0000.0001) %MON g__dynstat_g_eta_del2        =   1.4414423622098E-06
(PID.TID 0000.0001) %MON g__dynstat_g_uvel_max        =   4.0630787782019E-05
(PID.TID 0000.0001) %MON g__dynstat_g_uvel_min        =  -1.3197113589601E-04
(PID.TID 0000.0001) %MON g__dynstat_g_uvel_mean       =   1.6834025307654E-08
(PID.TID 0000.0001) %MON g__dynstat_g_uvel_sd         =   3.9735179943128E-07
(PID.TID 0000.0001) %MON g__dynstat_g_uvel_del2       =   4.0429066444396E-08
(PID.TID 0000.0001) %MON g__dynstat_g_vvel_max        =   3.3491463213821E-04
(PID.TID 0000.0001) %MON g__dynstat_g_vvel_min        =  -5.7198338767637E-05
(PID.TID 0000.0001) %MON g__dynstat_g_vvel_mean       =  -2.4237142929703E-08
(PID.TID 0000.0001) %MON g__dynstat_g_vvel_sd         =   7.8733710798382E-07
(PID.TID 0000.0001) %MON g__dynstat_g_vvel_del2       =   5.1542100943089E-08
(PID.TID 0000.0001) %MON g__dynstat_g_wvel_max        =   7.0388859715718E-08
(PID.TID 0000.0001) %MON g__dynstat_g_wvel_min        =  -4.1695950070535E-08
(PID.TID 0000.0001) %MON g__dynstat_g_wvel_mean       =  -4.5736649816685E-27
(PID.TID 0000.0001) %MON g__dynstat_g_wvel_sd         =   3.7491534418867E-10
(PID.TID 0000.0001) %MON g__dynstat_g_wvel_del2       =   7.8502061126740E-11
(PID.TID 0000.0001) %MON g__dynstat_g_theta_max       =   4.5466311299619E-01
(PID.TID 0000.0001) %MON g__dynstat_g_theta_min       =  -7.8157164393639E-04
(PID.TID 0000.0001) %MON g__dynstat_g_theta_mean      =   2.6611044146806E-06
(PID.TID 0000.0001) %MON g__dynstat_g_theta_sd        =   8.1191829994438E-04
(PID.TID 0000.0001) %MON g__dynstat_g_theta_del2      =   2.3054671345003E-05
(PID.TID 0000.0001) %MON g__dynstat_g_salt_max        =   9.1871880458614E-03
(PID.TID 0000.0001) %MON g__dynstat_g_salt_min        =  -7.6837472738803E-03
(PID.TID 0000.0001) %MON g__dynstat_g_salt_mean       =   6.8326755147635E-09
(PID.TID 0000.0001) %MON g__dynstat_g_salt_sd         =   1.7558941162471E-05
(PID.TID 0000.0001) %MON g__dynstat_g_salt_del2       =   9.1932837277035E-07
(PID.TID 0000.0001) %MON g__dynstat_g_sst_max         =   4.5466311299619E-01
(PID.TID 0000.0001) %MON g__dynstat_g_sst_min         =  -7.5236129395006E-05
(PID.TID 0000.0001) %MON g__dynstat_g_sst_mean        =   8.9840680689646E-05
(PID.TID 0000.0001) %MON g__dynstat_g_sst_sd          =   5.7828904725802E-03
(PID.TID 0000.0001) %MON g__dynstat_g_sst_del2        =   1.7827378753501E-04
(PID.TID 0000.0001) %MON g__dynstat_g_sss_max         =   9.1871880458614E-03
(PID.TID 0000.0001) %MON g__dynstat_g_sss_min         =  -7.6837472738803E-03
(PID.TID 0000.0001) %MON g__dynstat_g_sss_mean        =   7.1643731599984E-07
(PID.TID 0000.0001) %MON g__dynstat_g_sss_sd          =   1.5191637988178E-04
(PID.TID 0000.0001) %MON g__dynstat_g_sss_del2        =   9.4890302517657E-06
(PID.TID 0000.0001) %MON g__extforcing_g_qnet_max     =   0.0000000000000E+00
(PID.TID 0000.0001) %MON g__extforcing_g_qnet_min     =   0.0000000000000E+00
(PID.TID 0000.0001) %MON g__extforcing_g_qnet_mean    =   0.0000000000000E+00
(PID.TID 0000.0001) %MON g__extforcing_g_qnet_sd      =   0.0000000000000E+00
(PID.TID 0000.0001) %MON g__extforcing_g_qnet_del2    =   0.0000000000000E+00
(PID.TID 0000.0001) %MON g__extforcing_g_empmr_max    =   0.0000000000000E+00
(PID.TID 0000.0001) %MON g__extforcing_g_empmr_min    =   0.0000000000000E+00
(PID.TID 0000.0001) %MON g__extforcing_g_empmr_mean   =   0.0000000000000E+00
(PID.TID 0000.0001) %MON g__extforcing_g_empmr_sd     =   0.0000000000000E+00
(PID.TID 0000.0001) %MON g__extforcing_g_empmr_del2   =   0.0000000000000E+00
(PID.TID 0000.0001) %MON g__extforcing_g_fu_max       =   0.0000000000000E+00
(PID.TID 0000.0001) %MON g__extforcing_g_fu_min       =   0.0000000000000E+00
(PID.TID 0000.0001) %MON g__extforcing_g_fu_mean      =   0.0000000000000E+00
(PID.TID 0000.0001) %MON g__extforcing_g_fu_sd        =   0.0000000000000E+00
(PID.TID 0000.0001) %MON g__extforcing_g_fu_del2      =   0.0000000000000E+00
(PID.TID 0000.0001) %MON g__extforcing_g_fv_max       =   0.0000000000000E+00
(PID.TID 0000.0001) %MON g__extforcing_g_fv_min       =   0.0000000000000E+00
(PID.TID 0000.0001) %MON g__extforcing_g_fv_mean      =   0.0000000000000E+00
(PID.TID 0000.0001) %MON g__extforcing_g_fv_sd        =   0.0000000000000E+00
(PID.TID 0000.0001) %MON g__extforcing_g_fv_del2      =   0.0000000000000E+00
(PID.TID 0000.0001) %MON g__g_vcfl_g_uvel_max         =   4.6510160181380E-05
(PID.TID 0000.0001) %MON g__g_vcfl_g_vvel_max         =   3.2534270819767E-05
(PID.TID 0000.0001) %MON g__g_vcfl_g_wvel_max         =   3.8988580434308E-05
(PID.TID 0000.0001) %MON g__g_vcfl_g_W_hf_max         =   9.3572593042340E-05
(PID.TID 0000.0001) // =======================================================
(PID.TID 0000.0001) // End MONITOR dynamic field statistics
(PID.TID 0000.0001) // =======================================================
 cg2d: Sum(rhs),rhsMax =   6.44508088527363E-12  1.03964391509904E-02
 cg2d: Sum(rhs),rhsMax =   2.81692724701799E-12  8.91497210429915E+00
(PID.TID 0000.0001) // =======================================================
(PID.TID 0000.0001) // Begin MONITOR dynamic field statistics
(PID.TID 0000.0001) // =======================================================
(PID.TID 0000.0001) %MON g__time_tsnumber             =                   109
(PID.TID 0000.0001) %MON g__time_secondsf             =   4.7088000000000E+06
(PID.TID 0000.0001) %MON g__dynstat_g_eta_max         =   3.1344241906705E-03
(PID.TID 0000.0001) %MON g__dynstat_g_eta_min         =  -4.5357919425841E-05
(PID.TID 0000.0001) %MON g__dynstat_g_eta_mean        =  -4.2080305577742E-18
(PID.TID 0000.0001) %MON g__dynstat_g_eta_sd          =   3.9703887604615E-05
(PID.TID 0000.0001) %MON g__dynstat_g_eta_del2        =   1.4303837761451E-06
(PID.TID 0000.0001) %MON g__dynstat_g_uvel_max        =   4.1243011025578E-05
(PID.TID 0000.0001) %MON g__dynstat_g_uvel_min        =  -1.3195617021787E-04
(PID.TID 0000.0001) %MON g__dynstat_g_uvel_mean       =   1.5820509625119E-08
(PID.TID 0000.0001) %MON g__dynstat_g_uvel_sd         =   3.8781108560981E-07
(PID.TID 0000.0001) %MON g__dynstat_g_uvel_del2       =   4.0119087835558E-08
(PID.TID 0000.0001) %MON g__dynstat_g_vvel_max        =   3.3225344294575E-04
(PID.TID 0000.0001) %MON g__dynstat_g_vvel_min        =  -5.6955853728194E-05
(PID.TID 0000.0001) %MON g__dynstat_g_vvel_mean       =  -2.4867769083450E-08
(PID.TID 0000.0001) %MON g__dynstat_g_vvel_sd         =   7.8095138433843E-07
(PID.TID 0000.0001) %MON g__dynstat_g_vvel_del2       =   5.1729615892613E-08
(PID.TID 0000.0001) %MON g__dynstat_g_wvel_max        =   7.2809079739601E-08
(PID.TID 0000.0001) %MON g__dynstat_g_wvel_min        =  -4.1397401347867E-08
(PID.TID 0000.0001) %MON g__dynstat_g_wvel_mean       =  -5.7078065008831E-27
(PID.TID 0000.0001) %MON g__dynstat_g_wvel_sd         =   3.7710967248772E-10
(PID.TID 0000.0001) %MON g__dynstat_g_wvel_del2       =   7.9091696043643E-11
(PID.TID 0000.0001) %MON g__dynstat_g_theta_max       =   4.4959662771139E-01
(PID.TID 0000.0001) %MON g__dynstat_g_theta_min       =  -7.9073104481281E-04
(PID.TID 0000.0001) %MON g__dynstat_g_theta_mean      =   2.6492016981301E-06
(PID.TID 0000.0001) %MON g__dynstat_g_theta_sd        =   8.0574137037630E-04
(PID.TID 0000.0001) %MON g__dynstat_g_theta_del2      =   2.2878713192380E-05
(PID.TID 0000.0001) %MON g__dynstat_g_salt_max        =   9.1843056403489E-03
(PID.TID 0000.0001) %MON g__dynstat_g_salt_min        =  -7.6704500750401E-03
(PID.TID 0000.0001) %MON g__dynstat_g_salt_mean       =   6.7283802074789E-09
(PID.TID 0000.0001) %MON g__dynstat_g_salt_sd         =   1.7547130916934E-05
(PID.TID 0000.0001) %MON g__dynstat_g_salt_del2       =   9.1955703040059E-07
(PID.TID 0000.0001) %MON g__dynstat_g_sst_max         =   4.4959662771139E-01
(PID.TID 0000.0001) %MON g__dynstat_g_sst_min         =  -7.4718446584276E-05
(PID.TID 0000.0001) %MON g__dynstat_g_sst_mean        =   8.8906972546030E-05
(PID.TID 0000.0001) %MON g__dynstat_g_sst_sd          =   5.7187295075519E-03
(PID.TID 0000.0001) %MON g__dynstat_g_sst_del2        =   1.7621979266115E-04
(PID.TID 0000.0001) %MON g__dynstat_g_sss_max         =   9.1843056403489E-03
(PID.TID 0000.0001) %MON g__dynstat_g_sss_min         =  -7.6704500750401E-03
(PID.TID 0000.0001) %MON g__dynstat_g_sss_mean        =   7.1833269733745E-07
(PID.TID 0000.0001) %MON g__dynstat_g_sss_sd          =   1.5177584598996E-04
(PID.TID 0000.0001) %MON g__dynstat_g_sss_del2        =   9.4781203355924E-06
(PID.TID 0000.0001) %MON g__extforcing_g_qnet_max     =   0.0000000000000E+00
(PID.TID 0000.0001) %MON g__extforcing_g_qnet_min     =   0.0000000000000E+00
(PID.TID 0000.0001) %MON g__extforcing_g_qnet_mean    =   0.0000000000000E+00
(PID.TID 0000.0001) %MON g__extforcing_g_qnet_sd      =   0.0000000000000E+00
(PID.TID 0000.0001) %MON g__extforcing_g_qnet_del2    =   0.0000000000000E+00
(PID.TID 0000.0001) %MON g__extforcing_g_empmr_max    =   0.0000000000000E+00
(PID.TID 0000.0001) %MON g__extforcing_g_empmr_min    =   0.0000000000000E+00
(PID.TID 0000.0001) %MON g__extforcing_g_empmr_mean   =   0.0000000000000E+00
(PID.TID 0000.0001) %MON g__extforcing_g_empmr_sd     =   0.0000000000000E+00
(PID.TID 0000.0001) %MON g__extforcing_g_empmr_del2   =   0.0000000000000E+00
(PID.TID 0000.0001) %MON g__extforcing_g_fu_max       =   0.0000000000000E+00
(PID.TID 0000.0001) %MON g__extforcing_g_fu_min       =   0.0000000000000E+00
(PID.TID 0000.0001) %MON g__extforcing_g_fu_mean      =   0.0000000000000E+00
(PID.TID 0000.0001) %MON g__extforcing_g_fu_sd        =   0.0000000000000E+00
(PID.TID 0000.0001) %MON g__extforcing_g_fu_del2      =   0.0000000000000E+00
(PID.TID 0000.0001) %MON g__extforcing_g_fv_max       =   0.0000000000000E+00
(PID.TID 0000.0001) %MON g__extforcing_g_fv_min       =   0.0000000000000E+00
(PID.TID 0000.0001) %MON g__extforcing_g_fv_mean      =   0.0000000000000E+00
(PID.TID 0000.0001) %MON g__extforcing_g_fv_sd        =   0.0000000000000E+00
(PID.TID 0000.0001) %MON g__extforcing_g_fv_del2      =   0.0000000000000E+00
(PID.TID 0000.0001) %MON g__g_vcfl_g_uvel_max         =   4.6504885875881E-05
(PID.TID 0000.0001) %MON g__g_vcfl_g_vvel_max         =   3.2275757629892E-05
(PID.TID 0000.0001) %MON g__g_vcfl_g_wvel_max         =   4.0573054249519E-05
(PID.TID 0000.0001) %MON g__g_vcfl_g_W_hf_max         =   9.7375330198846E-05
(PID.TID 0000.0001) // =======================================================
(PID.TID 0000.0001) // End MONITOR dynamic field statistics
(PID.TID 0000.0001) // =======================================================
 cg2d: Sum(rhs),rhsMax =   6.41797778252540E-12  1.03180021490534E-02
 cg2d: Sum(rhs),rhsMax =   2.43038228431303E-12  8.91793955647200E+00
(PID.TID 0000.0001) // =======================================================
(PID.TID 0000.0001) // Begin MONITOR dynamic field statistics
(PID.TID 0000.0001) // =======================================================
(PID.TID 0000.0001) %MON g__time_tsnumber             =                   110
(PID.TID 0000.0001) %MON g__time_secondsf             =   4.7520000000000E+06
(PID.TID 0000.0001) %MON g__dynstat_g_eta_max         =   3.1102373692784E-03
(PID.TID 0000.0001) %MON g__dynstat_g_eta_min         =  -4.4803509746910E-05
(PID.TID 0000.0001) %MON g__dynstat_g_eta_mean        =  -4.1691956472576E-18
(PID.TID 0000.0001) %MON g__dynstat_g_eta_sd          =   3.9396862515634E-05
(PID.TID 0000.0001) %MON g__dynstat_g_eta_del2        =   1.4197840878573E-06
(PID.TID 0000.0001) %MON g__dynstat_g_uvel_max        =   4.1272713345482E-05
(PID.TID 0000.0001) %MON g__dynstat_g_uvel_min        =  -1.2969248699818E-04
(PID.TID 0000.0001) %MON g__dynstat_g_uvel_mean       =   1.4667397440432E-08
(PID.TID 0000.0001) %MON g__dynstat_g_uvel_sd         =   3.7402951032938E-07
(PID.TID 0000.0001) %MON g__dynstat_g_uvel_del2       =   3.9697133172316E-08
(PID.TID 0000.0001) %MON g__dynstat_g_vvel_max        =   3.2975137903023E-04
(PID.TID 0000.0001) %MON g__dynstat_g_vvel_min        =  -5.6868396640199E-05
(PID.TID 0000.0001) %MON g__dynstat_g_vvel_mean       =  -2.5429494764576E-08
(PID.TID 0000.0001) %MON g__dynstat_g_vvel_sd         =   7.7531283710906E-07
(PID.TID 0000.0001) %MON g__dynstat_g_vvel_del2       =   5.1845384587230E-08
(PID.TID 0000.0001) %MON g__dynstat_g_wvel_max        =   7.5067401107379E-08
(PID.TID 0000.0001) %MON g__dynstat_g_wvel_min        =  -4.1215909586232E-08
(PID.TID 0000.0001) %MON g__dynstat_g_wvel_mean       =  -7.0697912939780E-27
(PID.TID 0000.0001) %MON g__dynstat_g_wvel_sd         =   3.7816872957675E-10
(PID.TID 0000.0001) %MON g__dynstat_g_wvel_del2       =   7.9353978077577E-11
(PID.TID 0000.0001) %MON g__dynstat_g_theta_max       =   4.4459899428699E-01
(PID.TID 0000.0001) %MON g__dynstat_g_theta_min       =  -7.9814534530935E-04
(PID.TID 0000.0001) %MON g__dynstat_g_theta_mean      =   2.6375542712102E-06
(PID.TID 0000.0001) %MON g__dynstat_g_theta_sd        =   7.9970939557963E-04
(PID.TID 0000.0001) %MON g__dynstat_g_theta_del2      =   2.2707263549861E-05
(PID.TID 0000.0001) %MON g__dynstat_g_salt_max        =   9.1826024456706E-03
(PID.TID 0000.0001) %MON g__dynstat_g_salt_min        =  -7.6573758928225E-03
(PID.TID 0000.0001) %MON g__dynstat_g_salt_mean       =   6.5926416165697E-09
(PID.TID 0000.0001) %MON g__dynstat_g_salt_sd         =   1.7536969983411E-05
(PID.TID 0000.0001) %MON g__dynstat_g_salt_del2       =   9.1995278099958E-07
(PID.TID 0000.0001) %MON g__dynstat_g_sst_max         =   4.4459899428699E-01
(PID.TID 0000.0001) %MON g__dynstat_g_sst_min         =  -7.4804466411236E-05
(PID.TID 0000.0001) %MON g__dynstat_g_sst_mean        =   8.7981666080225E-05
(PID.TID 0000.0001) %MON g__dynstat_g_sst_sd          =   5.6554115436441E-03
(PID.TID 0000.0001) %MON g__dynstat_g_sst_del2        =   1.7419855676321E-04
(PID.TID 0000.0001) %MON g__dynstat_g_sss_max         =   9.1826024456706E-03
(PID.TID 0000.0001) %MON g__dynstat_g_sss_min         =  -7.6573758928225E-03
(PID.TID 0000.0001) %MON g__dynstat_g_sss_mean        =   7.1999206144812E-07
(PID.TID 0000.0001) %MON g__dynstat_g_sss_sd          =   1.5164803286294E-04
(PID.TID 0000.0001) %MON g__dynstat_g_sss_del2        =   9.4684596056337E-06
(PID.TID 0000.0001) %MON g__extforcing_g_qnet_max     =   0.0000000000000E+00
(PID.TID 0000.0001) %MON g__extforcing_g_qnet_min     =   0.0000000000000E+00
(PID.TID 0000.0001) %MON g__extforcing_g_qnet_mean    =   0.0000000000000E+00
(PID.TID 0000.0001) %MON g__extforcing_g_qnet_sd      =   0.0000000000000E+00
(PID.TID 0000.0001) %MON g__extforcing_g_qnet_del2    =   0.0000000000000E+00
(PID.TID 0000.0001) %MON g__extforcing_g_empmr_max    =   0.0000000000000E+00
(PID.TID 0000.0001) %MON g__extforcing_g_empmr_min    =   0.0000000000000E+00
(PID.TID 0000.0001) %MON g__extforcing_g_empmr_mean   =   0.0000000000000E+00
(PID.TID 0000.0001) %MON g__extforcing_g_empmr_sd     =   0.0000000000000E+00
(PID.TID 0000.0001) %MON g__extforcing_g_empmr_del2   =   0.0000000000000E+00
(PID.TID 0000.0001) %MON g__extforcing_g_fu_max       =   0.0000000000000E+00
(PID.TID 0000.0001) %MON g__extforcing_g_fu_min       =   0.0000000000000E+00
(PID.TID 0000.0001) %MON g__extforcing_g_fu_mean      =   0.0000000000000E+00
(PID.TID 0000.0001) %MON g__extforcing_g_fu_sd        =   0.0000000000000E+00
(PID.TID 0000.0001) %MON g__extforcing_g_fu_del2      =   0.0000000000000E+00
(PID.TID 0000.0001) %MON g__extforcing_g_fv_max       =   0.0000000000000E+00
(PID.TID 0000.0001) %MON g__extforcing_g_fv_min       =   0.0000000000000E+00
(PID.TID 0000.0001) %MON g__extforcing_g_fv_mean      =   0.0000000000000E+00
(PID.TID 0000.0001) %MON g__extforcing_g_fv_sd        =   0.0000000000000E+00
(PID.TID 0000.0001) %MON g__extforcing_g_fv_del2      =   0.0000000000000E+00
(PID.TID 0000.0001) %MON g__g_vcfl_g_uvel_max         =   4.5707103327198E-05
(PID.TID 0000.0001) %MON g__g_vcfl_g_vvel_max         =   3.2032702184639E-05
(PID.TID 0000.0001) %MON g__g_vcfl_g_wvel_max         =   4.2083647602233E-05
(PID.TID 0000.0001) %MON g__g_vcfl_g_W_hf_max         =   1.0100075424536E-04
(PID.TID 0000.0001) // =======================================================
(PID.TID 0000.0001) // End MONITOR dynamic field statistics
(PID.TID 0000.0001) // =======================================================
 myIter=  110
(PID.TID 0000.0001) // Model state written, timestep       110
(PID.TID 0000.0001) 
 cg2d: Sum(rhs),rhsMax =   6.40589570456577E-12  1.02423291570539E-02
 cg2d: Sum(rhs),rhsMax =   2.76502432061676E-12  8.90561081994307E+00
(PID.TID 0000.0001) // =======================================================
(PID.TID 0000.0001) // Begin MONITOR dynamic field statistics
(PID.TID 0000.0001) // =======================================================
(PID.TID 0000.0001) %MON g__time_tsnumber             =                   111
(PID.TID 0000.0001) %MON g__time_secondsf             =   4.7952000000000E+06
(PID.TID 0000.0001) %MON g__dynstat_g_eta_max         =   3.0869225725963E-03
(PID.TID 0000.0001) %MON g__dynstat_g_eta_min         =  -4.4003255655242E-05
(PID.TID 0000.0001) %MON g__dynstat_g_eta_mean        =  -4.1387769031582E-18
(PID.TID 0000.0001) %MON g__dynstat_g_eta_sd          =   3.9101186486011E-05
(PID.TID 0000.0001) %MON g__dynstat_g_eta_del2        =   1.4101669226056E-06
(PID.TID 0000.0001) %MON g__dynstat_g_uvel_max        =   4.0746691668581E-05
(PID.TID 0000.0001) %MON g__dynstat_g_uvel_min        =  -1.2531520782021E-04
(PID.TID 0000.0001) %MON g__dynstat_g_uvel_mean       =   1.3430002228032E-08
(PID.TID 0000.0001) %MON g__dynstat_g_uvel_sd         =   3.5673722398291E-07
(PID.TID 0000.0001) %MON g__dynstat_g_uvel_del2       =   3.9119730221729E-08
(PID.TID 0000.0001) %MON g__dynstat_g_vvel_max        =   3.2744254705148E-04
(PID.TID 0000.0001) %MON g__dynstat_g_vvel_min        =  -5.7532124895130E-05
(PID.TID 0000.0001) %MON g__dynstat_g_vvel_mean       =  -2.5894732595890E-08
(PID.TID 0000.0001) %MON g__dynstat_g_vvel_sd         =   7.7041367602473E-07
(PID.TID 0000.0001) %MON g__dynstat_g_vvel_del2       =   5.1869178799383E-08
(PID.TID 0000.0001) %MON g__dynstat_g_wvel_max        =   7.7128177912881E-08
(PID.TID 0000.0001) %MON g__dynstat_g_wvel_min        =  -4.0029084657859E-08
(PID.TID 0000.0001) %MON g__dynstat_g_wvel_mean       =  -3.1586567538689E-27
(PID.TID 0000.0001) %MON g__dynstat_g_wvel_sd         =   3.7822258342208E-10
(PID.TID 0000.0001) %MON g__dynstat_g_wvel_del2       =   7.9294898493757E-11
(PID.TID 0000.0001) %MON g__dynstat_g_theta_max       =   4.3965715937492E-01
(PID.TID 0000.0001) %MON g__dynstat_g_theta_min       =  -8.0380416349304E-04
(PID.TID 0000.0001) %MON g__dynstat_g_theta_mean      =   2.6261664608297E-06
(PID.TID 0000.0001) %MON g__dynstat_g_theta_sd        =   7.9379677214928E-04
(PID.TID 0000.0001) %MON g__dynstat_g_theta_del2      =   2.2539778251557E-05
(PID.TID 0000.0001) %MON g__dynstat_g_salt_max        =   9.1817039825641E-03
(PID.TID 0000.0001) %MON g__dynstat_g_salt_min        =  -7.6441297370431E-03
(PID.TID 0000.0001) %MON g__dynstat_g_salt_mean       =   6.4303066789267E-09
(PID.TID 0000.0001) %MON g__dynstat_g_salt_sd         =   1.7527649191960E-05
(PID.TID 0000.0001) %MON g__dynstat_g_salt_del2       =   9.2051672642804E-07
(PID.TID 0000.0001) %MON g__dynstat_g_sst_max         =   4.3965715937492E-01
(PID.TID 0000.0001) %MON g__dynstat_g_sst_min         =  -7.5483455644223E-05
(PID.TID 0000.0001) %MON g__dynstat_g_sst_mean        =   8.7064295591462E-05
(PID.TID 0000.0001) %MON g__dynstat_g_sst_sd          =   5.5927720240602E-03
(PID.TID 0000.0001) %MON g__dynstat_g_sst_del2        =   1.7220612639250E-04
(PID.TID 0000.0001) %MON g__dynstat_g_sss_max         =   9.1817039825641E-03
(PID.TID 0000.0001) %MON g__dynstat_g_sss_min         =  -7.6441297370431E-03
(PID.TID 0000.0001) %MON g__dynstat_g_sss_mean        =   7.2181209862728E-07
(PID.TID 0000.0001) %MON g__dynstat_g_sss_sd          =   1.5152622298865E-04
(PID.TID 0000.0001) %MON g__dynstat_g_sss_del2        =   9.4598556095181E-06
(PID.TID 0000.0001) %MON g__extforcing_g_qnet_max     =   0.0000000000000E+00
(PID.TID 0000.0001) %MON g__extforcing_g_qnet_min     =   0.0000000000000E+00
(PID.TID 0000.0001) %MON g__extforcing_g_qnet_mean    =   0.0000000000000E+00
(PID.TID 0000.0001) %MON g__extforcing_g_qnet_sd      =   0.0000000000000E+00
(PID.TID 0000.0001) %MON g__extforcing_g_qnet_del2    =   0.0000000000000E+00
(PID.TID 0000.0001) %MON g__extforcing_g_empmr_max    =   0.0000000000000E+00
(PID.TID 0000.0001) %MON g__extforcing_g_empmr_min    =   0.0000000000000E+00
(PID.TID 0000.0001) %MON g__extforcing_g_empmr_mean   =   0.0000000000000E+00
(PID.TID 0000.0001) %MON g__extforcing_g_empmr_sd     =   0.0000000000000E+00
(PID.TID 0000.0001) %MON g__extforcing_g_empmr_del2   =   0.0000000000000E+00
(PID.TID 0000.0001) %MON g__extforcing_g_fu_max       =   0.0000000000000E+00
(PID.TID 0000.0001) %MON g__extforcing_g_fu_min       =   0.0000000000000E+00
(PID.TID 0000.0001) %MON g__extforcing_g_fu_mean      =   0.0000000000000E+00
(PID.TID 0000.0001) %MON g__extforcing_g_fu_sd        =   0.0000000000000E+00
(PID.TID 0000.0001) %MON g__extforcing_g_fu_del2      =   0.0000000000000E+00
(PID.TID 0000.0001) %MON g__extforcing_g_fv_max       =   0.0000000000000E+00
(PID.TID 0000.0001) %MON g__extforcing_g_fv_min       =   0.0000000000000E+00
(PID.TID 0000.0001) %MON g__extforcing_g_fv_mean      =   0.0000000000000E+00
(PID.TID 0000.0001) %MON g__extforcing_g_fv_sd        =   0.0000000000000E+00
(PID.TID 0000.0001) %MON g__extforcing_g_fv_del2      =   0.0000000000000E+00
(PID.TID 0000.0001) %MON g__g_vcfl_g_uvel_max         =   4.4164432997481E-05
(PID.TID 0000.0001) %MON g__g_vcfl_g_vvel_max         =   3.1808417672510E-05
(PID.TID 0000.0001) %MON g__g_vcfl_g_wvel_max         =   4.3491637146939E-05
(PID.TID 0000.0001) %MON g__g_vcfl_g_W_hf_max         =   1.0437992915265E-04
(PID.TID 0000.0001) // =======================================================
(PID.TID 0000.0001) // End MONITOR dynamic field statistics
(PID.TID 0000.0001) // =======================================================
 cg2d: Sum(rhs),rhsMax =   6.40868617668346E-12  1.01687173314793E-02
 cg2d: Sum(rhs),rhsMax =   1.87912185811712E-12  8.87885337906477E+00
(PID.TID 0000.0001) // =======================================================
(PID.TID 0000.0001) // Begin MONITOR dynamic field statistics
(PID.TID 0000.0001) // =======================================================
(PID.TID 0000.0001) %MON g__time_tsnumber             =                   112
(PID.TID 0000.0001) %MON g__time_secondsf             =   4.8384000000000E+06
(PID.TID 0000.0001) %MON g__dynstat_g_eta_max         =   3.0642692518591E-03
(PID.TID 0000.0001) %MON g__dynstat_g_eta_min         =  -4.2979397440375E-05
(PID.TID 0000.0001) %MON g__dynstat_g_eta_mean        =  -4.1051759373872E-18
(PID.TID 0000.0001) %MON g__dynstat_g_eta_sd          =   3.8814148564276E-05
(PID.TID 0000.0001) %MON g__dynstat_g_eta_del2        =   1.4017728999688E-06
(PID.TID 0000.0001) %MON g__dynstat_g_uvel_max        =   3.9710072219678E-05
(PID.TID 0000.0001) %MON g__dynstat_g_uvel_min        =  -1.1902856401544E-04
(PID.TID 0000.0001) %MON g__dynstat_g_uvel_mean       =   1.2164564089503E-08
(PID.TID 0000.0001) %MON g__dynstat_g_uvel_sd         =   3.3688818363377E-07
(PID.TID 0000.0001) %MON g__dynstat_g_uvel_del2       =   3.8446746649714E-08
(PID.TID 0000.0001) %MON g__dynstat_g_vvel_max        =   3.2535277149769E-04
(PID.TID 0000.0001) %MON g__dynstat_g_vvel_min        =  -5.8217614734933E-05
(PID.TID 0000.0001) %MON g__dynstat_g_vvel_mean       =  -2.6233529303322E-08
(PID.TID 0000.0001) %MON g__dynstat_g_vvel_sd         =   7.6620798931210E-07
(PID.TID 0000.0001) %MON g__dynstat_g_vvel_del2       =   5.1831362433177E-08
(PID.TID 0000.0001) %MON g__dynstat_g_wvel_max        =   7.8970765167434E-08
(PID.TID 0000.0001) %MON g__dynstat_g_wvel_min        =  -3.7936482054888E-08
(PID.TID 0000.0001) %MON g__dynstat_g_wvel_mean       =  -1.1861149849154E-27
(PID.TID 0000.0001) %MON g__dynstat_g_wvel_sd         =   3.7747931547391E-10
(PID.TID 0000.0001) %MON g__dynstat_g_wvel_del2       =   7.9027240125102E-11
(PID.TID 0000.0001) %MON g__dynstat_g_theta_max       =   4.3475541937029E-01
(PID.TID 0000.0001) %MON g__dynstat_g_theta_min       =  -8.0772499713405E-04
(PID.TID 0000.0001) %MON g__dynstat_g_theta_mean      =   2.6150002517193E-06
(PID.TID 0000.0001) %MON g__dynstat_g_theta_sd        =   7.8796994979835E-04
(PID.TID 0000.0001) %MON g__dynstat_g_theta_del2      =   2.2375024837682E-05
(PID.TID 0000.0001) %MON g__dynstat_g_salt_max        =   9.1811088780363E-03
(PID.TID 0000.0001) %MON g__dynstat_g_salt_min        =  -7.6301914545843E-03
(PID.TID 0000.0001) %MON g__dynstat_g_salt_mean       =   6.2468480417377E-09
(PID.TID 0000.0001) %MON g__dynstat_g_salt_sd         =   1.7518084920941E-05
(PID.TID 0000.0001) %MON g__dynstat_g_salt_del2       =   9.2107734819500E-07
(PID.TID 0000.0001) %MON g__dynstat_g_sst_max         =   4.3475541937029E-01
(PID.TID 0000.0001) %MON g__dynstat_g_sst_min         =  -7.6728789977151E-05
(PID.TID 0000.0001) %MON g__dynstat_g_sst_mean        =   8.6152489891658E-05
(PID.TID 0000.0001) %MON g__dynstat_g_sst_sd          =   5.5306128224274E-03
(PID.TID 0000.0001) %MON g__dynstat_g_sst_del2        =   1.7023406258031E-04
(PID.TID 0000.0001) %MON g__dynstat_g_sss_max         =   9.1811088780363E-03
(PID.TID 0000.0001) %MON g__dynstat_g_sss_min         =  -7.6301914545843E-03
(PID.TID 0000.0001) %MON g__dynstat_g_sss_mean        =   7.2405766176315E-07
(PID.TID 0000.0001) %MON g__dynstat_g_sss_sd          =   1.5140141855278E-04
(PID.TID 0000.0001) %MON g__dynstat_g_sss_del2        =   9.4509763100397E-06
(PID.TID 0000.0001) %MON g__extforcing_g_qnet_max     =   0.0000000000000E+00
(PID.TID 0000.0001) %MON g__extforcing_g_qnet_min     =   0.0000000000000E+00
(PID.TID 0000.0001) %MON g__extforcing_g_qnet_mean    =   0.0000000000000E+00
(PID.TID 0000.0001) %MON g__extforcing_g_qnet_sd      =   0.0000000000000E+00
(PID.TID 0000.0001) %MON g__extforcing_g_qnet_del2    =   0.0000000000000E+00
(PID.TID 0000.0001) %MON g__extforcing_g_empmr_max    =   0.0000000000000E+00
(PID.TID 0000.0001) %MON g__extforcing_g_empmr_min    =   0.0000000000000E+00
(PID.TID 0000.0001) %MON g__extforcing_g_empmr_mean   =   0.0000000000000E+00
(PID.TID 0000.0001) %MON g__extforcing_g_empmr_sd     =   0.0000000000000E+00
(PID.TID 0000.0001) %MON g__extforcing_g_empmr_del2   =   0.0000000000000E+00
(PID.TID 0000.0001) %MON g__extforcing_g_fu_max       =   0.0000000000000E+00
(PID.TID 0000.0001) %MON g__extforcing_g_fu_min       =   0.0000000000000E+00
(PID.TID 0000.0001) %MON g__extforcing_g_fu_mean      =   0.0000000000000E+00
(PID.TID 0000.0001) %MON g__extforcing_g_fu_sd        =   0.0000000000000E+00
(PID.TID 0000.0001) %MON g__extforcing_g_fu_del2      =   0.0000000000000E+00
(PID.TID 0000.0001) %MON g__extforcing_g_fv_max       =   0.0000000000000E+00
(PID.TID 0000.0001) %MON g__extforcing_g_fv_min       =   0.0000000000000E+00
(PID.TID 0000.0001) %MON g__extforcing_g_fv_mean      =   0.0000000000000E+00
(PID.TID 0000.0001) %MON g__extforcing_g_fv_sd        =   0.0000000000000E+00
(PID.TID 0000.0001) %MON g__extforcing_g_fv_del2      =   0.0000000000000E+00
(PID.TID 0000.0001) %MON g__g_vcfl_g_uvel_max         =   4.1948851473701E-05
(PID.TID 0000.0001) %MON g__g_vcfl_g_vvel_max         =   3.1605412735444E-05
(PID.TID 0000.0001) %MON g__g_vcfl_g_wvel_max         =   4.4776470747438E-05
(PID.TID 0000.0001) %MON g__g_vcfl_g_W_hf_max         =   1.0746352979385E-04
(PID.TID 0000.0001) // =======================================================
(PID.TID 0000.0001) // End MONITOR dynamic field statistics
(PID.TID 0000.0001) // =======================================================
 cg2d: Sum(rhs),rhsMax =   6.39835890704505E-12  1.00963367092127E-02
 cg2d: Sum(rhs),rhsMax =   2.69159000643171E-12  8.83905900826780E+00
(PID.TID 0000.0001) // =======================================================
(PID.TID 0000.0001) // Begin MONITOR dynamic field statistics
(PID.TID 0000.0001) // =======================================================
(PID.TID 0000.0001) %MON g__time_tsnumber             =                   113
(PID.TID 0000.0001) %MON g__time_secondsf             =   4.8816000000000E+06
(PID.TID 0000.0001) %MON g__dynstat_g_eta_max         =   3.0420300739362E-03
(PID.TID 0000.0001) %MON g__dynstat_g_eta_min         =  -4.1754840380870E-05
(PID.TID 0000.0001) %MON g__dynstat_g_eta_mean        =  -4.0411895703531E-18
(PID.TID 0000.0001) %MON g__dynstat_g_eta_sd          =   3.8532573529904E-05
(PID.TID 0000.0001) %MON g__dynstat_g_eta_del2        =   1.3947853425207E-06
(PID.TID 0000.0001) %MON g__dynstat_g_uvel_max        =   3.8224526266696E-05
(PID.TID 0000.0001) %MON g__dynstat_g_uvel_min        =  -1.1109848104397E-04
(PID.TID 0000.0001) %MON g__dynstat_g_uvel_mean       =   1.0925759293294E-08
(PID.TID 0000.0001) %MON g__dynstat_g_uvel_sd         =   3.1564114956499E-07
(PID.TID 0000.0001) %MON g__dynstat_g_uvel_del2       =   3.8027362183522E-08
(PID.TID 0000.0001) %MON g__dynstat_g_vvel_max        =   3.2349840771733E-04
(PID.TID 0000.0001) %MON g__dynstat_g_vvel_min        =  -5.8897552545093E-05
(PID.TID 0000.0001) %MON g__dynstat_g_vvel_mean       =  -2.6415933637603E-08
(PID.TID 0000.0001) %MON g__dynstat_g_vvel_sd         =   7.6262091631150E-07
(PID.TID 0000.0001) %MON g__dynstat_g_vvel_del2       =   5.1765036883791E-08
(PID.TID 0000.0001) %MON g__dynstat_g_wvel_max        =   8.0588152607871E-08
(PID.TID 0000.0001) %MON g__dynstat_g_wvel_min        =  -3.5066281590187E-08
(PID.TID 0000.0001) %MON g__dynstat_g_wvel_mean       =  -2.4208785336854E-27
(PID.TID 0000.0001) %MON g__dynstat_g_wvel_sd         =   3.7619078796266E-10
(PID.TID 0000.0001) %MON g__dynstat_g_wvel_del2       =   7.8470729095287E-11
(PID.TID 0000.0001) %MON g__dynstat_g_theta_max       =   4.2987655857894E-01
(PID.TID 0000.0001) %MON g__dynstat_g_theta_min       =  -8.0995409365490E-04
(PID.TID 0000.0001) %MON g__dynstat_g_theta_mean      =   2.6039807853407E-06
(PID.TID 0000.0001) %MON g__dynstat_g_theta_sd        =   7.8218792219809E-04
(PID.TID 0000.0001) %MON g__dynstat_g_theta_del2      =   2.2222987089726E-05
(PID.TID 0000.0001) %MON g__dynstat_g_salt_max        =   9.1802202232636E-03
(PID.TID 0000.0001) %MON g__dynstat_g_salt_min        =  -7.6149499364908E-03
(PID.TID 0000.0001) %MON g__dynstat_g_salt_mean       =   6.0481823613664E-09
(PID.TID 0000.0001) %MON g__dynstat_g_salt_sd         =   1.7506997492780E-05
(PID.TID 0000.0001) %MON g__dynstat_g_salt_del2       =   9.2167642980138E-07
(PID.TID 0000.0001) %MON g__dynstat_g_sst_max         =   4.2987655857894E-01
(PID.TID 0000.0001) %MON g__dynstat_g_sst_min         =  -7.8499729390886E-05
(PID.TID 0000.0001) %MON g__dynstat_g_sst_mean        =   8.5236910770937E-05
(PID.TID 0000.0001) %MON g__dynstat_g_sst_sd          =   5.4687169092502E-03
(PID.TID 0000.0001) %MON g__dynstat_g_sst_del2        =   1.6827862100202E-04
(PID.TID 0000.0001) %MON g__dynstat_g_sss_max         =   9.1802202232636E-03
(PID.TID 0000.0001) %MON g__dynstat_g_sss_min         =  -7.6149499364908E-03
(PID.TID 0000.0001) %MON g__dynstat_g_sss_mean        =   7.2529107785476E-07
(PID.TID 0000.0001) %MON g__dynstat_g_sss_sd          =   1.5126294305652E-04
(PID.TID 0000.0001) %MON g__dynstat_g_sss_del2        =   9.4425607892907E-06
(PID.TID 0000.0001) %MON g__extforcing_g_qnet_max     =   0.0000000000000E+00
(PID.TID 0000.0001) %MON g__extforcing_g_qnet_min     =   0.0000000000000E+00
(PID.TID 0000.0001) %MON g__extforcing_g_qnet_mean    =   0.0000000000000E+00
(PID.TID 0000.0001) %MON g__extforcing_g_qnet_sd      =   0.0000000000000E+00
(PID.TID 0000.0001) %MON g__extforcing_g_qnet_del2    =   0.0000000000000E+00
(PID.TID 0000.0001) %MON g__extforcing_g_empmr_max    =   0.0000000000000E+00
(PID.TID 0000.0001) %MON g__extforcing_g_empmr_min    =   0.0000000000000E+00
(PID.TID 0000.0001) %MON g__extforcing_g_empmr_mean   =   0.0000000000000E+00
(PID.TID 0000.0001) %MON g__extforcing_g_empmr_sd     =   0.0000000000000E+00
(PID.TID 0000.0001) %MON g__extforcing_g_empmr_del2   =   0.0000000000000E+00
(PID.TID 0000.0001) %MON g__extforcing_g_fu_max       =   0.0000000000000E+00
(PID.TID 0000.0001) %MON g__extforcing_g_fu_min       =   0.0000000000000E+00
(PID.TID 0000.0001) %MON g__extforcing_g_fu_mean      =   0.0000000000000E+00
(PID.TID 0000.0001) %MON g__extforcing_g_fu_sd        =   0.0000000000000E+00
(PID.TID 0000.0001) %MON g__extforcing_g_fu_del2      =   0.0000000000000E+00
(PID.TID 0000.0001) %MON g__extforcing_g_fv_max       =   0.0000000000000E+00
(PID.TID 0000.0001) %MON g__extforcing_g_fv_min       =   0.0000000000000E+00
(PID.TID 0000.0001) %MON g__extforcing_g_fv_mean      =   0.0000000000000E+00
(PID.TID 0000.0001) %MON g__extforcing_g_fv_sd        =   0.0000000000000E+00
(PID.TID 0000.0001) %MON g__extforcing_g_fv_del2      =   0.0000000000000E+00
(PID.TID 0000.0001) %MON g__g_vcfl_g_uvel_max         =   3.9154078004863E-05
(PID.TID 0000.0001) %MON g__g_vcfl_g_vvel_max         =   3.1425276164392E-05
(PID.TID 0000.0001) %MON g__g_vcfl_g_wvel_max         =   4.5925058366961E-05
(PID.TID 0000.0001) %MON g__g_vcfl_g_W_hf_max         =   1.1022014008071E-04
(PID.TID 0000.0001) // =======================================================
(PID.TID 0000.0001) // End MONITOR dynamic field statistics
(PID.TID 0000.0001) // =======================================================
 cg2d: Sum(rhs),rhsMax =   6.34762380190886E-12  1.00243550827137E-02
 cg2d: Sum(rhs),rhsMax =   2.86636686608333E-12  8.78807252840719E+00
(PID.TID 0000.0001) // =======================================================
(PID.TID 0000.0001) // Begin MONITOR dynamic field statistics
(PID.TID 0000.0001) // =======================================================
(PID.TID 0000.0001) %MON g__time_tsnumber             =                   114
(PID.TID 0000.0001) %MON g__time_secondsf             =   4.9248000000000E+06
(PID.TID 0000.0001) %MON g__dynstat_g_eta_max         =   3.0199549560003E-03
(PID.TID 0000.0001) %MON g__dynstat_g_eta_min         =  -4.0353599846630E-05
(PID.TID 0000.0001) %MON g__dynstat_g_eta_mean        =  -3.9356439472526E-18
(PID.TID 0000.0001) %MON g__dynstat_g_eta_sd          =   3.8253157915501E-05
(PID.TID 0000.0001) %MON g__dynstat_g_eta_del2        =   1.3872338322461E-06
(PID.TID 0000.0001) %MON g__dynstat_g_uvel_max        =   3.6369631758394E-05
(PID.TID 0000.0001) %MON g__dynstat_g_uvel_min        =  -1.0184113389818E-04
(PID.TID 0000.0001) %MON g__dynstat_g_uvel_mean       =   9.7606284754406E-09
(PID.TID 0000.0001) %MON g__dynstat_g_uvel_sd         =   2.9438471476489E-07
(PID.TID 0000.0001) %MON g__dynstat_g_uvel_del2       =   3.7865777201490E-08
(PID.TID 0000.0001) %MON g__dynstat_g_vvel_max        =   3.2188663935429E-04
(PID.TID 0000.0001) %MON g__dynstat_g_vvel_min        =  -5.9537786193457E-05
(PID.TID 0000.0001) %MON g__dynstat_g_vvel_mean       =  -2.6414719597905E-08
(PID.TID 0000.0001) %MON g__dynstat_g_vvel_sd         =   7.5960408479384E-07
(PID.TID 0000.0001) %MON g__dynstat_g_vvel_del2       =   5.1670234765683E-08
(PID.TID 0000.0001) %MON g__dynstat_g_wvel_max        =   8.1986083842670E-08
(PID.TID 0000.0001) %MON g__dynstat_g_wvel_min        =  -3.2818211752440E-08
(PID.TID 0000.0001) %MON g__dynstat_g_wvel_mean       =   3.6363926507144E-28
(PID.TID 0000.0001) %MON g__dynstat_g_wvel_sd         =   3.7560366104116E-10
(PID.TID 0000.0001) %MON g__dynstat_g_wvel_del2       =   7.7755382747700E-11
(PID.TID 0000.0001) %MON g__dynstat_g_theta_max       =   4.2500305693523E-01
(PID.TID 0000.0001) %MON g__dynstat_g_theta_min       =  -8.1056583477721E-04
(PID.TID 0000.0001) %MON g__dynstat_g_theta_mean      =   2.5930072094990E-06
(PID.TID 0000.0001) %MON g__dynstat_g_theta_sd        =   7.7641244917360E-04
(PID.TID 0000.0001) %MON g__dynstat_g_theta_del2      =   2.2059628184176E-05
(PID.TID 0000.0001) %MON g__dynstat_g_salt_max        =   9.1783828634086E-03
(PID.TID 0000.0001) %MON g__dynstat_g_salt_min        =  -7.5977437823444E-03
(PID.TID 0000.0001) %MON g__dynstat_g_salt_mean       =   5.8409909399389E-09
(PID.TID 0000.0001) %MON g__dynstat_g_salt_sd         =   1.7493021074528E-05
(PID.TID 0000.0001) %MON g__dynstat_g_salt_del2       =   9.2229251603205E-07
(PID.TID 0000.0001) %MON g__dynstat_g_sst_max         =   4.2500305693523E-01
(PID.TID 0000.0001) %MON g__dynstat_g_sst_min         =  -8.0743579128242E-05
(PID.TID 0000.0001) %MON g__dynstat_g_sst_mean        =   8.4317311953655E-05
(PID.TID 0000.0001) %MON g__dynstat_g_sst_sd          =   5.4068635659566E-03
(PID.TID 0000.0001) %MON g__dynstat_g_sst_del2        =   1.6633207879455E-04
(PID.TID 0000.0001) %MON g__dynstat_g_sss_max         =   9.1783828634086E-03
(PID.TID 0000.0001) %MON g__dynstat_g_sss_min         =  -7.5977437823444E-03
(PID.TID 0000.0001) %MON g__dynstat_g_sss_mean        =   7.2611713748736E-07
(PID.TID 0000.0001) %MON g__dynstat_g_sss_sd          =   1.5109910185913E-04
(PID.TID 0000.0001) %MON g__dynstat_g_sss_del2        =   9.4335230914893E-06
(PID.TID 0000.0001) %MON g__extforcing_g_qnet_max     =   0.0000000000000E+00
(PID.TID 0000.0001) %MON g__extforcing_g_qnet_min     =   0.0000000000000E+00
(PID.TID 0000.0001) %MON g__extforcing_g_qnet_mean    =   0.0000000000000E+00
(PID.TID 0000.0001) %MON g__extforcing_g_qnet_sd      =   0.0000000000000E+00
(PID.TID 0000.0001) %MON g__extforcing_g_qnet_del2    =   0.0000000000000E+00
(PID.TID 0000.0001) %MON g__extforcing_g_empmr_max    =   0.0000000000000E+00
(PID.TID 0000.0001) %MON g__extforcing_g_empmr_min    =   0.0000000000000E+00
(PID.TID 0000.0001) %MON g__extforcing_g_empmr_mean   =   0.0000000000000E+00
(PID.TID 0000.0001) %MON g__extforcing_g_empmr_sd     =   0.0000000000000E+00
(PID.TID 0000.0001) %MON g__extforcing_g_empmr_del2   =   0.0000000000000E+00
(PID.TID 0000.0001) %MON g__extforcing_g_fu_max       =   0.0000000000000E+00
(PID.TID 0000.0001) %MON g__extforcing_g_fu_min       =   0.0000000000000E+00
(PID.TID 0000.0001) %MON g__extforcing_g_fu_mean      =   0.0000000000000E+00
(PID.TID 0000.0001) %MON g__extforcing_g_fu_sd        =   0.0000000000000E+00
(PID.TID 0000.0001) %MON g__extforcing_g_fu_del2      =   0.0000000000000E+00
(PID.TID 0000.0001) %MON g__extforcing_g_fv_max       =   0.0000000000000E+00
(PID.TID 0000.0001) %MON g__extforcing_g_fv_min       =   0.0000000000000E+00
(PID.TID 0000.0001) %MON g__extforcing_g_fv_mean      =   0.0000000000000E+00
(PID.TID 0000.0001) %MON g__extforcing_g_fv_sd        =   0.0000000000000E+00
(PID.TID 0000.0001) %MON g__extforcing_g_fv_del2      =   0.0000000000000E+00
(PID.TID 0000.0001) %MON g__g_vcfl_g_uvel_max         =   3.5891541119944E-05
(PID.TID 0000.0001) %MON g__g_vcfl_g_vvel_max         =   3.1268705792751E-05
(PID.TID 0000.0001) %MON g__g_vcfl_g_wvel_max         =   4.6932025938024E-05
(PID.TID 0000.0001) %MON g__g_vcfl_g_W_hf_max         =   1.1263686225126E-04
(PID.TID 0000.0001) // =======================================================
(PID.TID 0000.0001) // End MONITOR dynamic field statistics
(PID.TID 0000.0001) // =======================================================
 cg2d: Sum(rhs),rhsMax =   6.22303502673983E-12  9.95172388247940E-03
 cg2d: Sum(rhs),rhsMax =   2.18331602797051E-12  8.72810172445273E+00
(PID.TID 0000.0001) // =======================================================
(PID.TID 0000.0001) // Begin MONITOR dynamic field statistics
(PID.TID 0000.0001) // =======================================================
(PID.TID 0000.0001) %MON g__time_tsnumber             =                   115
(PID.TID 0000.0001) %MON g__time_secondsf             =   4.9680000000000E+06
(PID.TID 0000.0001) %MON g__dynstat_g_eta_max         =   2.9977385520008E-03
(PID.TID 0000.0001) %MON g__dynstat_g_eta_min         =  -3.8800827976517E-05
(PID.TID 0000.0001) %MON g__dynstat_g_eta_mean        =  -3.7733293569734E-18
(PID.TID 0000.0001) %MON g__dynstat_g_eta_sd          =   3.7972235247330E-05
(PID.TID 0000.0001) %MON g__dynstat_g_eta_del2        =   1.3789098462549E-06
(PID.TID 0000.0001) %MON g__dynstat_g_uvel_max        =   3.4231797594636E-05
(PID.TID 0000.0001) %MON g__dynstat_g_uvel_min        =  -9.1616241508667E-05
(PID.TID 0000.0001) %MON g__dynstat_g_uvel_mean       =   8.7187418713895E-09
(PID.TID 0000.0001) %MON g__dynstat_g_uvel_sd         =   2.7446353725259E-07
(PID.TID 0000.0001) %MON g__dynstat_g_uvel_del2       =   3.7623528172549E-08
(PID.TID 0000.0001) %MON g__dynstat_g_vvel_max        =   3.2051205176442E-04
(PID.TID 0000.0001) %MON g__dynstat_g_vvel_min        =  -6.0118181975113E-05
(PID.TID 0000.0001) %MON g__dynstat_g_vvel_mean       =  -2.6206460639455E-08
(PID.TID 0000.0001) %MON g__dynstat_g_vvel_sd         =   7.5698346388921E-07
(PID.TID 0000.0001) %MON g__dynstat_g_vvel_del2       =   5.1518299511762E-08
(PID.TID 0000.0001) %MON g__dynstat_g_wvel_max        =   8.3179029167076E-08
(PID.TID 0000.0001) %MON g__dynstat_g_wvel_min        =  -3.2380576318199E-08
(PID.TID 0000.0001) %MON g__dynstat_g_wvel_mean       =  -1.5119553658408E-27
(PID.TID 0000.0001) %MON g__dynstat_g_wvel_sd         =   3.7486992062127E-10
(PID.TID 0000.0001) %MON g__dynstat_g_wvel_del2       =   7.7012768934339E-11
(PID.TID 0000.0001) %MON g__dynstat_g_theta_max       =   4.2011833575810E-01
(PID.TID 0000.0001) %MON g__dynstat_g_theta_min       =  -8.0966061660822E-04
(PID.TID 0000.0001) %MON g__dynstat_g_theta_mean      =   2.5819580695373E-06
(PID.TID 0000.0001) %MON g__dynstat_g_theta_sd        =   7.7060017537808E-04
(PID.TID 0000.0001) %MON g__dynstat_g_theta_del2      =   2.1894843725896E-05
(PID.TID 0000.0001) %MON g__dynstat_g_salt_max        =   9.1749247976381E-03
(PID.TID 0000.0001) %MON g__dynstat_g_salt_min        =  -7.5779050455423E-03
(PID.TID 0000.0001) %MON g__dynstat_g_salt_mean       =   5.6314401051452E-09
(PID.TID 0000.0001) %MON g__dynstat_g_salt_sd         =   1.7474665806437E-05
(PID.TID 0000.0001) %MON g__dynstat_g_salt_del2       =   9.2272982369616E-07
(PID.TID 0000.0001) %MON g__dynstat_g_sst_max         =   4.2011833575810E-01
(PID.TID 0000.0001) %MON g__dynstat_g_sst_min         =  -8.3387229190741E-05
(PID.TID 0000.0001) %MON g__dynstat_g_sst_mean        =   8.3391975433699E-05
(PID.TID 0000.0001) %MON g__dynstat_g_sst_sd          =   5.3448446098743E-03
(PID.TID 0000.0001) %MON g__dynstat_g_sst_del2        =   1.6438712216012E-04
(PID.TID 0000.0001) %MON g__dynstat_g_sss_max         =   9.1749247976381E-03
(PID.TID 0000.0001) %MON g__dynstat_g_sss_min         =  -7.5779050455423E-03
(PID.TID 0000.0001) %MON g__dynstat_g_sss_mean        =   7.2691317008837E-07
(PID.TID 0000.0001) %MON g__dynstat_g_sss_sd          =   1.5089796555317E-04
(PID.TID 0000.0001) %MON g__dynstat_g_sss_del2        =   9.4227224605867E-06
(PID.TID 0000.0001) %MON g__extforcing_g_qnet_max     =   0.0000000000000E+00
(PID.TID 0000.0001) %MON g__extforcing_g_qnet_min     =   0.0000000000000E+00
(PID.TID 0000.0001) %MON g__extforcing_g_qnet_mean    =   0.0000000000000E+00
(PID.TID 0000.0001) %MON g__extforcing_g_qnet_sd      =   0.0000000000000E+00
(PID.TID 0000.0001) %MON g__extforcing_g_qnet_del2    =   0.0000000000000E+00
(PID.TID 0000.0001) %MON g__extforcing_g_empmr_max    =   0.0000000000000E+00
(PID.TID 0000.0001) %MON g__extforcing_g_empmr_min    =   0.0000000000000E+00
(PID.TID 0000.0001) %MON g__extforcing_g_empmr_mean   =   0.0000000000000E+00
(PID.TID 0000.0001) %MON g__extforcing_g_empmr_sd     =   0.0000000000000E+00
(PID.TID 0000.0001) %MON g__extforcing_g_empmr_del2   =   0.0000000000000E+00
(PID.TID 0000.0001) %MON g__extforcing_g_fu_max       =   0.0000000000000E+00
(PID.TID 0000.0001) %MON g__extforcing_g_fu_min       =   0.0000000000000E+00
(PID.TID 0000.0001) %MON g__extforcing_g_fu_mean      =   0.0000000000000E+00
(PID.TID 0000.0001) %MON g__extforcing_g_fu_sd        =   0.0000000000000E+00
(PID.TID 0000.0001) %MON g__extforcing_g_fu_del2      =   0.0000000000000E+00
(PID.TID 0000.0001) %MON g__extforcing_g_fv_max       =   0.0000000000000E+00
(PID.TID 0000.0001) %MON g__extforcing_g_fv_min       =   0.0000000000000E+00
(PID.TID 0000.0001) %MON g__extforcing_g_fv_mean      =   0.0000000000000E+00
(PID.TID 0000.0001) %MON g__extforcing_g_fv_sd        =   0.0000000000000E+00
(PID.TID 0000.0001) %MON g__extforcing_g_fv_del2      =   0.0000000000000E+00
(PID.TID 0000.0001) %MON g__g_vcfl_g_uvel_max         =   3.2288015397106E-05
(PID.TID 0000.0001) %MON g__g_vcfl_g_vvel_max         =   3.1135175631263E-05
(PID.TID 0000.0001) %MON g__g_vcfl_g_wvel_max         =   4.7795804708776E-05
(PID.TID 0000.0001) %MON g__g_vcfl_g_W_hf_max         =   1.1470993130106E-04
(PID.TID 0000.0001) // =======================================================
(PID.TID 0000.0001) // End MONITOR dynamic field statistics
(PID.TID 0000.0001) // =======================================================
 cg2d: Sum(rhs),rhsMax =   6.01187066166624E-12  9.87752503539945E-03
 cg2d: Sum(rhs),rhsMax =   2.24256724301597E-12  8.66161341629482E+00
(PID.TID 0000.0001) // =======================================================
(PID.TID 0000.0001) // Begin MONITOR dynamic field statistics
(PID.TID 0000.0001) // =======================================================
(PID.TID 0000.0001) %MON g__time_tsnumber             =                   116
(PID.TID 0000.0001) %MON g__time_secondsf             =   5.0112000000000E+06
(PID.TID 0000.0001) %MON g__dynstat_g_eta_max         =   2.9751047332174E-03
(PID.TID 0000.0001) %MON g__dynstat_g_eta_min         =  -3.7122530921384E-05
(PID.TID 0000.0001) %MON g__dynstat_g_eta_mean        =  -3.5761151475503E-18
(PID.TID 0000.0001) %MON g__dynstat_g_eta_sd          =   3.7686273068645E-05
(PID.TID 0000.0001) %MON g__dynstat_g_eta_del2        =   1.3696477852958E-06
(PID.TID 0000.0001) %MON g__dynstat_g_uvel_max        =   3.1902549524880E-05
(PID.TID 0000.0001) %MON g__dynstat_g_uvel_min        =  -8.0809649226144E-05
(PID.TID 0000.0001) %MON g__dynstat_g_uvel_mean       =   7.8357803384236E-09
(PID.TID 0000.0001) %MON g__dynstat_g_uvel_sd         =   2.5728247933777E-07
(PID.TID 0000.0001) %MON g__dynstat_g_uvel_del2       =   3.7457999887620E-08
(PID.TID 0000.0001) %MON g__dynstat_g_vvel_max        =   3.1935798546263E-04
(PID.TID 0000.0001) %MON g__dynstat_g_vvel_min        =  -6.0611192730145E-05
(PID.TID 0000.0001) %MON g__dynstat_g_vvel_mean       =  -2.5774386918406E-08
(PID.TID 0000.0001) %MON g__dynstat_g_vvel_sd         =   7.5467366780053E-07
(PID.TID 0000.0001) %MON g__dynstat_g_vvel_del2       =   5.1284073141524E-08
(PID.TID 0000.0001) %MON g__dynstat_g_wvel_max        =   8.4183813726980E-08
(PID.TID 0000.0001) %MON g__dynstat_g_wvel_min        =  -3.1921320499839E-08
(PID.TID 0000.0001) %MON g__dynstat_g_wvel_mean       =  -1.8580951475113E-27
(PID.TID 0000.0001) %MON g__dynstat_g_wvel_sd         =   3.7410503057256E-10
(PID.TID 0000.0001) %MON g__dynstat_g_wvel_del2       =   7.6415603877043E-11
(PID.TID 0000.0001) %MON g__dynstat_g_theta_max       =   4.1520776922005E-01
(PID.TID 0000.0001) %MON g__dynstat_g_theta_min       =  -8.0736099838807E-04
(PID.TID 0000.0001) %MON g__dynstat_g_theta_mean      =   2.5706962541468E-06
(PID.TID 0000.0001) %MON g__dynstat_g_theta_sd        =   7.6471204365237E-04
(PID.TID 0000.0001) %MON g__dynstat_g_theta_del2      =   2.1727687357743E-05
(PID.TID 0000.0001) %MON g__dynstat_g_salt_max        =   9.1692017245655E-03
(PID.TID 0000.0001) %MON g__dynstat_g_salt_min        =  -7.5548106508034E-03
(PID.TID 0000.0001) %MON g__dynstat_g_salt_mean       =   5.4248880154369E-09
(PID.TID 0000.0001) %MON g__dynstat_g_salt_sd         =   1.7450559910254E-05
(PID.TID 0000.0001) %MON g__dynstat_g_salt_del2       =   9.2291514069473E-07
(PID.TID 0000.0001) %MON g__dynstat_g_sst_max         =   4.1520776922005E-01
(PID.TID 0000.0001) %MON g__dynstat_g_sst_min         =  -8.6364634737196E-05
(PID.TID 0000.0001) %MON g__dynstat_g_sst_mean        =   8.2455505910921E-05
(PID.TID 0000.0001) %MON g__dynstat_g_sst_sd          =   5.2824768260497E-03
(PID.TID 0000.0001) %MON g__dynstat_g_sst_del2        =   1.6244060653897E-04
(PID.TID 0000.0001) %MON g__dynstat_g_sss_max         =   9.1692017245655E-03
(PID.TID 0000.0001) %MON g__dynstat_g_sss_min         =  -7.5548106508034E-03
(PID.TID 0000.0001) %MON g__dynstat_g_sss_mean        =   7.2740191697471E-07
(PID.TID 0000.0001) %MON g__dynstat_g_sss_sd          =   1.5064826339881E-04
(PID.TID 0000.0001) %MON g__dynstat_g_sss_del2        =   9.4098935594379E-06
(PID.TID 0000.0001) %MON g__extforcing_g_qnet_max     =   0.0000000000000E+00
(PID.TID 0000.0001) %MON g__extforcing_g_qnet_min     =   0.0000000000000E+00
(PID.TID 0000.0001) %MON g__extforcing_g_qnet_mean    =   0.0000000000000E+00
(PID.TID 0000.0001) %MON g__extforcing_g_qnet_sd      =   0.0000000000000E+00
(PID.TID 0000.0001) %MON g__extforcing_g_qnet_del2    =   0.0000000000000E+00
(PID.TID 0000.0001) %MON g__extforcing_g_empmr_max    =   0.0000000000000E+00
(PID.TID 0000.0001) %MON g__extforcing_g_empmr_min    =   0.0000000000000E+00
(PID.TID 0000.0001) %MON g__extforcing_g_empmr_mean   =   0.0000000000000E+00
(PID.TID 0000.0001) %MON g__extforcing_g_empmr_sd     =   0.0000000000000E+00
(PID.TID 0000.0001) %MON g__extforcing_g_empmr_del2   =   0.0000000000000E+00
(PID.TID 0000.0001) %MON g__extforcing_g_fu_max       =   0.0000000000000E+00
(PID.TID 0000.0001) %MON g__extforcing_g_fu_min       =   0.0000000000000E+00
(PID.TID 0000.0001) %MON g__extforcing_g_fu_mean      =   0.0000000000000E+00
(PID.TID 0000.0001) %MON g__extforcing_g_fu_sd        =   0.0000000000000E+00
(PID.TID 0000.0001) %MON g__extforcing_g_fu_del2      =   0.0000000000000E+00
(PID.TID 0000.0001) %MON g__extforcing_g_fv_max       =   0.0000000000000E+00
(PID.TID 0000.0001) %MON g__extforcing_g_fv_min       =   0.0000000000000E+00
(PID.TID 0000.0001) %MON g__extforcing_g_fv_mean      =   0.0000000000000E+00
(PID.TID 0000.0001) %MON g__extforcing_g_fv_sd        =   0.0000000000000E+00
(PID.TID 0000.0001) %MON g__extforcing_g_fv_del2      =   0.0000000000000E+00
(PID.TID 0000.0001) %MON g__g_vcfl_g_uvel_max         =   2.8479483064165E-05
(PID.TID 0000.0001) %MON g__g_vcfl_g_vvel_max         =   3.1023067344543E-05
(PID.TID 0000.0001) %MON g__g_vcfl_g_wvel_max         =   4.8516471690499E-05
(PID.TID 0000.0001) %MON g__g_vcfl_g_W_hf_max         =   1.1643953205720E-04
(PID.TID 0000.0001) // =======================================================
(PID.TID 0000.0001) // End MONITOR dynamic field statistics
(PID.TID 0000.0001) // =======================================================
 cg2d: Sum(rhs),rhsMax =   5.74277430486934E-12  9.80091013037526E-03
 cg2d: Sum(rhs),rhsMax =   1.92805493792747E-12  8.59122132821659E+00
(PID.TID 0000.0001) // =======================================================
(PID.TID 0000.0001) // Begin MONITOR dynamic field statistics
(PID.TID 0000.0001) // =======================================================
(PID.TID 0000.0001) %MON g__time_tsnumber             =                   117
(PID.TID 0000.0001) %MON g__time_secondsf             =   5.0544000000000E+06
(PID.TID 0000.0001) %MON g__dynstat_g_eta_max         =   2.9517980550310E-03
(PID.TID 0000.0001) %MON g__dynstat_g_eta_min         =  -3.5345824465038E-05
(PID.TID 0000.0001) %MON g__dynstat_g_eta_mean        =  -3.4251819149729E-18
(PID.TID 0000.0001) %MON g__dynstat_g_eta_sd          =   3.7392039806093E-05
(PID.TID 0000.0001) %MON g__dynstat_g_eta_del2        =   1.3592805433115E-06
(PID.TID 0000.0001) %MON g__dynstat_g_uvel_max        =   2.9479143816032E-05
(PID.TID 0000.0001) %MON g__dynstat_g_uvel_min        =  -6.9819841073615E-05
(PID.TID 0000.0001) %MON g__dynstat_g_uvel_mean       =   7.1389608575576E-09
(PID.TID 0000.0001) %MON g__dynstat_g_uvel_sd         =   2.4397281562820E-07
(PID.TID 0000.0001) %MON g__dynstat_g_uvel_del2       =   3.7289206927194E-08
(PID.TID 0000.0001) %MON g__dynstat_g_vvel_max        =   3.1839700161910E-04
(PID.TID 0000.0001) %MON g__dynstat_g_vvel_min        =  -6.0996575487055E-05
(PID.TID 0000.0001) %MON g__dynstat_g_vvel_mean       =  -2.5109504390474E-08
(PID.TID 0000.0001) %MON g__dynstat_g_vvel_sd         =   7.5257222329681E-07
(PID.TID 0000.0001) %MON g__dynstat_g_vvel_del2       =   5.1013072998379E-08
(PID.TID 0000.0001) %MON g__dynstat_g_wvel_max        =   8.5026623356249E-08
(PID.TID 0000.0001) %MON g__dynstat_g_wvel_min        =  -3.1461027639732E-08
(PID.TID 0000.0001) %MON g__dynstat_g_wvel_mean       =   2.2780827491338E-27
(PID.TID 0000.0001) %MON g__dynstat_g_wvel_sd         =   3.7338307373731E-10
(PID.TID 0000.0001) %MON g__dynstat_g_wvel_del2       =   7.6020859585198E-11
(PID.TID 0000.0001) %MON g__dynstat_g_theta_max       =   4.1025976102545E-01
(PID.TID 0000.0001) %MON g__dynstat_g_theta_min       =  -8.0380649603168E-04
(PID.TID 0000.0001) %MON g__dynstat_g_theta_mean      =   2.5590930212795E-06
(PID.TID 0000.0001) %MON g__dynstat_g_theta_sd        =   7.5871472113221E-04
(PID.TID 0000.0001) %MON g__dynstat_g_theta_del2      =   2.1556030219108E-05
(PID.TID 0000.0001) %MON g__dynstat_g_salt_max        =   9.1606351485994E-03
(PID.TID 0000.0001) %MON g__dynstat_g_salt_min        =  -7.5279213913121E-03
(PID.TID 0000.0001) %MON g__dynstat_g_salt_mean       =   5.2264188520005E-09
(PID.TID 0000.0001) %MON g__dynstat_g_salt_sd         =   1.7419499847984E-05
(PID.TID 0000.0001) %MON g__dynstat_g_salt_del2       =   9.2274366526870E-07
(PID.TID 0000.0001) %MON g__dynstat_g_sst_max         =   4.1025976102545E-01
(PID.TID 0000.0001) %MON g__dynstat_g_sst_min         =  -8.9618727226466E-05
(PID.TID 0000.0001) %MON g__dynstat_g_sst_mean        =   8.1509069128015E-05
(PID.TID 0000.0001) %MON g__dynstat_g_sst_sd          =   5.2196163879693E-03
(PID.TID 0000.0001) %MON g__dynstat_g_sst_del2        =   1.6048021803031E-04
(PID.TID 0000.0001) %MON g__dynstat_g_sss_max         =   9.1606351485994E-03
(PID.TID 0000.0001) %MON g__dynstat_g_sss_min         =  -7.5279213913121E-03
(PID.TID 0000.0001) %MON g__dynstat_g_sss_mean        =   7.2788387130866E-07
(PID.TID 0000.0001) %MON g__dynstat_g_sss_sd          =   1.5034002149593E-04
(PID.TID 0000.0001) %MON g__dynstat_g_sss_del2        =   9.3937242055946E-06
(PID.TID 0000.0001) %MON g__extforcing_g_qnet_max     =   0.0000000000000E+00
(PID.TID 0000.0001) %MON g__extforcing_g_qnet_min     =   0.0000000000000E+00
(PID.TID 0000.0001) %MON g__extforcing_g_qnet_mean    =   0.0000000000000E+00
(PID.TID 0000.0001) %MON g__extforcing_g_qnet_sd      =   0.0000000000000E+00
(PID.TID 0000.0001) %MON g__extforcing_g_qnet_del2    =   0.0000000000000E+00
(PID.TID 0000.0001) %MON g__extforcing_g_empmr_max    =   0.0000000000000E+00
(PID.TID 0000.0001) %MON g__extforcing_g_empmr_min    =   0.0000000000000E+00
(PID.TID 0000.0001) %MON g__extforcing_g_empmr_mean   =   0.0000000000000E+00
(PID.TID 0000.0001) %MON g__extforcing_g_empmr_sd     =   0.0000000000000E+00
(PID.TID 0000.0001) %MON g__extforcing_g_empmr_del2   =   0.0000000000000E+00
(PID.TID 0000.0001) %MON g__extforcing_g_fu_max       =   0.0000000000000E+00
(PID.TID 0000.0001) %MON g__extforcing_g_fu_min       =   0.0000000000000E+00
(PID.TID 0000.0001) %MON g__extforcing_g_fu_mean      =   0.0000000000000E+00
(PID.TID 0000.0001) %MON g__extforcing_g_fu_sd        =   0.0000000000000E+00
(PID.TID 0000.0001) %MON g__extforcing_g_fu_del2      =   0.0000000000000E+00
(PID.TID 0000.0001) %MON g__extforcing_g_fv_max       =   0.0000000000000E+00
(PID.TID 0000.0001) %MON g__extforcing_g_fv_min       =   0.0000000000000E+00
(PID.TID 0000.0001) %MON g__extforcing_g_fv_mean      =   0.0000000000000E+00
(PID.TID 0000.0001) %MON g__extforcing_g_fv_sd        =   0.0000000000000E+00
(PID.TID 0000.0001) %MON g__extforcing_g_fv_del2      =   0.0000000000000E+00
(PID.TID 0000.0001) %MON g__g_vcfl_g_uvel_max         =   2.4606380555298E-05
(PID.TID 0000.0001) %MON g__g_vcfl_g_vvel_max         =   3.0929715470308E-05
(PID.TID 0000.0001) %MON g__g_vcfl_g_wvel_max         =   4.9101024768000E-05
(PID.TID 0000.0001) %MON g__g_vcfl_g_W_hf_max         =   1.1784245944320E-04
(PID.TID 0000.0001) // =======================================================
(PID.TID 0000.0001) // End MONITOR dynamic field statistics
(PID.TID 0000.0001) // =======================================================
 cg2d: Sum(rhs),rhsMax =   5.54336506981400E-12  9.72115005739515E-03
 cg2d: Sum(rhs),rhsMax =   2.26828278382385E-12  8.77527684111764E+00
(PID.TID 0000.0001) // =======================================================
(PID.TID 0000.0001) // Begin MONITOR dynamic field statistics
(PID.TID 0000.0001) // =======================================================
(PID.TID 0000.0001) %MON g__time_tsnumber             =                   118
(PID.TID 0000.0001) %MON g__time_secondsf             =   5.0976000000000E+06
(PID.TID 0000.0001) %MON g__dynstat_g_eta_max         =   2.9275982111436E-03
(PID.TID 0000.0001) %MON g__dynstat_g_eta_min         =  -3.3499600297726E-05
(PID.TID 0000.0001) %MON g__dynstat_g_eta_mean        =  -3.2860820256400E-18
(PID.TID 0000.0001) %MON g__dynstat_g_eta_sd          =   3.7086801058754E-05
(PID.TID 0000.0001) %MON g__dynstat_g_eta_del2        =   1.3475357778976E-06
(PID.TID 0000.0001) %MON g__dynstat_g_uvel_max        =   2.7058185727086E-05
(PID.TID 0000.0001) %MON g__dynstat_g_uvel_min        =  -6.0492096005334E-05
(PID.TID 0000.0001) %MON g__dynstat_g_uvel_mean       =   6.6449892263328E-09
(PID.TID 0000.0001) %MON g__dynstat_g_uvel_sd         =   2.3516174301979E-07
(PID.TID 0000.0001) %MON g__dynstat_g_uvel_del2       =   3.7360947020783E-08
(PID.TID 0000.0001) %MON g__dynstat_g_vvel_max        =   3.1759186703192E-04
(PID.TID 0000.0001) %MON g__dynstat_g_vvel_min        =  -6.1255318851177E-05
(PID.TID 0000.0001) %MON g__dynstat_g_vvel_mean       =  -2.4211403019246E-08
(PID.TID 0000.0001) %MON g__dynstat_g_vvel_sd         =   7.5058615449122E-07
(PID.TID 0000.0001) %MON g__dynstat_g_vvel_del2       =   5.0712900309458E-08
(PID.TID 0000.0001) %MON g__dynstat_g_wvel_max        =   8.5734463100023E-08
(PID.TID 0000.0001) %MON g__dynstat_g_wvel_min        =  -3.1029646464173E-08
(PID.TID 0000.0001) %MON g__dynstat_g_wvel_mean       =  -2.6166977529419E-27
(PID.TID 0000.0001) %MON g__dynstat_g_wvel_sd         =   3.7274343921375E-10
(PID.TID 0000.0001) %MON g__dynstat_g_wvel_del2       =   7.5695852636098E-11
(PID.TID 0000.0001) %MON g__dynstat_g_theta_max       =   4.0526652533482E-01
(PID.TID 0000.0001) %MON g__dynstat_g_theta_min       =  -7.9914738082718E-04
(PID.TID 0000.0001) %MON g__dynstat_g_theta_mean      =   2.5470288398700E-06
(PID.TID 0000.0001) %MON g__dynstat_g_theta_sd        =   7.5258277509662E-04
(PID.TID 0000.0001) %MON g__dynstat_g_theta_del2      =   2.1379881007261E-05
(PID.TID 0000.0001) %MON g__dynstat_g_salt_max        =   9.1487543195818E-03
(PID.TID 0000.0001) %MON g__dynstat_g_salt_min        =  -7.4968280379819E-03
(PID.TID 0000.0001) %MON g__dynstat_g_salt_mean       =   5.0399168026484E-09
(PID.TID 0000.0001) %MON g__dynstat_g_salt_sd         =   1.7380536959438E-05
(PID.TID 0000.0001) %MON g__dynstat_g_salt_del2       =   9.2221179957628E-07
(PID.TID 0000.0001) %MON g__dynstat_g_sst_max         =   4.0526652533482E-01
(PID.TID 0000.0001) %MON g__dynstat_g_sst_min         =  -9.3080726505315E-05
(PID.TID 0000.0001) %MON g__dynstat_g_sst_mean        =   8.0549846328381E-05
(PID.TID 0000.0001) %MON g__dynstat_g_sst_sd          =   5.1561683327608E-03
(PID.TID 0000.0001) %MON g__dynstat_g_sst_del2        =   1.5850829821441E-04
(PID.TID 0000.0001) %MON g__dynstat_g_sss_max         =   9.1487543195818E-03
(PID.TID 0000.0001) %MON g__dynstat_g_sss_min         =  -7.4968280379819E-03
(PID.TID 0000.0001) %MON g__dynstat_g_sss_mean        =   7.2815937757612E-07
(PID.TID 0000.0001) %MON g__dynstat_g_sss_sd          =   1.4996538433891E-04
(PID.TID 0000.0001) %MON g__dynstat_g_sss_del2        =   9.3747173668131E-06
(PID.TID 0000.0001) %MON g__extforcing_g_qnet_max     =   0.0000000000000E+00
(PID.TID 0000.0001) %MON g__extforcing_g_qnet_min     =   0.0000000000000E+00
(PID.TID 0000.0001) %MON g__extforcing_g_qnet_mean    =   0.0000000000000E+00
(PID.TID 0000.0001) %MON g__extforcing_g_qnet_sd      =   0.0000000000000E+00
(PID.TID 0000.0001) %MON g__extforcing_g_qnet_del2    =   0.0000000000000E+00
(PID.TID 0000.0001) %MON g__extforcing_g_empmr_max    =   0.0000000000000E+00
(PID.TID 0000.0001) %MON g__extforcing_g_empmr_min    =   0.0000000000000E+00
(PID.TID 0000.0001) %MON g__extforcing_g_empmr_mean   =   0.0000000000000E+00
(PID.TID 0000.0001) %MON g__extforcing_g_empmr_sd     =   0.0000000000000E+00
(PID.TID 0000.0001) %MON g__extforcing_g_empmr_del2   =   0.0000000000000E+00
(PID.TID 0000.0001) %MON g__extforcing_g_fu_max       =   0.0000000000000E+00
(PID.TID 0000.0001) %MON g__extforcing_g_fu_min       =   0.0000000000000E+00
(PID.TID 0000.0001) %MON g__extforcing_g_fu_mean      =   0.0000000000000E+00
(PID.TID 0000.0001) %MON g__extforcing_g_fu_sd        =   0.0000000000000E+00
(PID.TID 0000.0001) %MON g__extforcing_g_fu_del2      =   0.0000000000000E+00
(PID.TID 0000.0001) %MON g__extforcing_g_fv_max       =   0.0000000000000E+00
(PID.TID 0000.0001) %MON g__extforcing_g_fv_min       =   0.0000000000000E+00
(PID.TID 0000.0001) %MON g__extforcing_g_fv_mean      =   0.0000000000000E+00
(PID.TID 0000.0001) %MON g__extforcing_g_fv_sd        =   0.0000000000000E+00
(PID.TID 0000.0001) %MON g__extforcing_g_fv_del2      =   0.0000000000000E+00
(PID.TID 0000.0001) %MON g__g_vcfl_g_uvel_max         =   2.0808377126029E-05
(PID.TID 0000.0001) %MON g__g_vcfl_g_vvel_max         =   3.0851503101567E-05
(PID.TID 0000.0001) %MON g__g_vcfl_g_wvel_max         =   4.9558012838224E-05
(PID.TID 0000.0001) %MON g__g_vcfl_g_W_hf_max         =   1.1893923081174E-04
(PID.TID 0000.0001) // =======================================================
(PID.TID 0000.0001) // End MONITOR dynamic field statistics
(PID.TID 0000.0001) // =======================================================
 cg2d: Sum(rhs),rhsMax =   5.36476998214781E-12  9.63767851482583E-03
 cg2d: Sum(rhs),rhsMax =   2.60698407306137E-12  9.00166235036073E+00
(PID.TID 0000.0001) // =======================================================
(PID.TID 0000.0001) // Begin MONITOR dynamic field statistics
(PID.TID 0000.0001) // =======================================================
(PID.TID 0000.0001) %MON g__time_tsnumber             =                   119
(PID.TID 0000.0001) %MON g__time_secondsf             =   5.1408000000000E+06
(PID.TID 0000.0001) %MON g__dynstat_g_eta_max         =   2.9023320273385E-03
(PID.TID 0000.0001) %MON g__dynstat_g_eta_min         =  -3.1614784842576E-05
(PID.TID 0000.0001) %MON g__dynstat_g_eta_mean        =  -3.1504218970609E-18
(PID.TID 0000.0001) %MON g__dynstat_g_eta_sd          =   3.6768435992395E-05
(PID.TID 0000.0001) %MON g__dynstat_g_eta_del2        =   1.3355367057408E-06
(PID.TID 0000.0001) %MON g__dynstat_g_uvel_max        =   2.9088048394351E-05
(PID.TID 0000.0001) %MON g__dynstat_g_uvel_min        =  -5.9763504014685E-05
(PID.TID 0000.0001) %MON g__dynstat_g_uvel_mean       =   6.3596690146582E-09
(PID.TID 0000.0001) %MON g__dynstat_g_uvel_sd         =   2.3078192994557E-07
(PID.TID 0000.0001) %MON g__dynstat_g_uvel_del2       =   3.7429570377157E-08
(PID.TID 0000.0001) %MON g__dynstat_g_vvel_max        =   3.1689646690731E-04
(PID.TID 0000.0001) %MON g__dynstat_g_vvel_min        =  -6.1371819762014E-05
(PID.TID 0000.0001) %MON g__dynstat_g_vvel_mean       =  -2.3088774976176E-08
(PID.TID 0000.0001) %MON g__dynstat_g_vvel_sd         =   7.4863311946786E-07
(PID.TID 0000.0001) %MON g__dynstat_g_vvel_del2       =   5.0399327141501E-08
(PID.TID 0000.0001) %MON g__dynstat_g_wvel_max        =   8.6333480876701E-08
(PID.TID 0000.0001) %MON g__dynstat_g_wvel_min        =  -3.0635265450506E-08
(PID.TID 0000.0001) %MON g__dynstat_g_wvel_mean       =   1.6502012847082E-28
(PID.TID 0000.0001) %MON g__dynstat_g_wvel_sd         =   3.7210122641179E-10
(PID.TID 0000.0001) %MON g__dynstat_g_wvel_del2       =   7.5465966747722E-11
(PID.TID 0000.0001) %MON g__dynstat_g_theta_max       =   4.0022460602915E-01
(PID.TID 0000.0001) %MON g__dynstat_g_theta_min       =  -7.9353785163328E-04
(PID.TID 0000.0001) %MON g__dynstat_g_theta_mean      =   2.5344075906976E-06
(PID.TID 0000.0001) %MON g__dynstat_g_theta_sd        =   7.4630046579659E-04
(PID.TID 0000.0001) %MON g__dynstat_g_theta_del2      =   2.1198681025832E-05
(PID.TID 0000.0001) %MON g__dynstat_g_salt_max        =   9.1332299705908E-03
(PID.TID 0000.0001) %MON g__dynstat_g_salt_min        =  -7.4612855517291E-03
(PID.TID 0000.0001) %MON g__dynstat_g_salt_mean       =   4.8682863999683E-09
(PID.TID 0000.0001) %MON g__dynstat_g_salt_sd         =   1.7333054080885E-05
(PID.TID 0000.0001) %MON g__dynstat_g_salt_del2       =   9.2123803355021E-07
(PID.TID 0000.0001) %MON g__dynstat_g_sst_max         =   4.0022460602915E-01
(PID.TID 0000.0001) %MON g__dynstat_g_sst_min         =  -9.6669299282969E-05
(PID.TID 0000.0001) %MON g__dynstat_g_sst_mean        =   7.9576323062753E-05
(PID.TID 0000.0001) %MON g__dynstat_g_sst_sd          =   5.0920931012424E-03
(PID.TID 0000.0001) %MON g__dynstat_g_sst_del2        =   1.5652246380773E-04
(PID.TID 0000.0001) %MON g__dynstat_g_sss_max         =   9.1332299705908E-03
(PID.TID 0000.0001) %MON g__dynstat_g_sss_min         =  -7.4612855517291E-03
(PID.TID 0000.0001) %MON g__dynstat_g_sss_mean        =   7.2810924479733E-07
(PID.TID 0000.0001) %MON g__dynstat_g_sss_sd          =   1.4951921847024E-04
(PID.TID 0000.0001) %MON g__dynstat_g_sss_del2        =   9.3519920180444E-06
(PID.TID 0000.0001) %MON g__extforcing_g_qnet_max     =   0.0000000000000E+00
(PID.TID 0000.0001) %MON g__extforcing_g_qnet_min     =   0.0000000000000E+00
(PID.TID 0000.0001) %MON g__extforcing_g_qnet_mean    =   0.0000000000000E+00
(PID.TID 0000.0001) %MON g__extforcing_g_qnet_sd      =   0.0000000000000E+00
(PID.TID 0000.0001) %MON g__extforcing_g_qnet_del2    =   0.0000000000000E+00
(PID.TID 0000.0001) %MON g__extforcing_g_empmr_max    =   0.0000000000000E+00
(PID.TID 0000.0001) %MON g__extforcing_g_empmr_min    =   0.0000000000000E+00
(PID.TID 0000.0001) %MON g__extforcing_g_empmr_mean   =   0.0000000000000E+00
(PID.TID 0000.0001) %MON g__extforcing_g_empmr_sd     =   0.0000000000000E+00
(PID.TID 0000.0001) %MON g__extforcing_g_empmr_del2   =   0.0000000000000E+00
(PID.TID 0000.0001) %MON g__extforcing_g_fu_max       =   0.0000000000000E+00
(PID.TID 0000.0001) %MON g__extforcing_g_fu_min       =   0.0000000000000E+00
(PID.TID 0000.0001) %MON g__extforcing_g_fu_mean      =   0.0000000000000E+00
(PID.TID 0000.0001) %MON g__extforcing_g_fu_sd        =   0.0000000000000E+00
(PID.TID 0000.0001) %MON g__extforcing_g_fu_del2      =   0.0000000000000E+00
(PID.TID 0000.0001) %MON g__extforcing_g_fv_max       =   0.0000000000000E+00
(PID.TID 0000.0001) %MON g__extforcing_g_fv_min       =   0.0000000000000E+00
(PID.TID 0000.0001) %MON g__extforcing_g_fv_mean      =   0.0000000000000E+00
(PID.TID 0000.0001) %MON g__extforcing_g_fv_sd        =   0.0000000000000E+00
(PID.TID 0000.0001) %MON g__extforcing_g_fv_del2      =   0.0000000000000E+00
(PID.TID 0000.0001) %MON g__g_vcfl_g_uvel_max         =   1.7219210924778E-05
(PID.TID 0000.0001) %MON g__g_vcfl_g_vvel_max         =   3.0783950555899E-05
(PID.TID 0000.0001) %MON g__g_vcfl_g_wvel_max         =   4.9897044814510E-05
(PID.TID 0000.0001) %MON g__g_vcfl_g_W_hf_max         =   1.1975290755482E-04
(PID.TID 0000.0001) // =======================================================
(PID.TID 0000.0001) // End MONITOR dynamic field statistics
(PID.TID 0000.0001) // =======================================================
 cg2d: Sum(rhs),rhsMax =   5.19205914427476E-12  9.55012660310296E-03
 cg2d: Sum(rhs),rhsMax =   2.38375985617267E-12  9.15305707655143E+00
(PID.TID 0000.0001) // =======================================================
(PID.TID 0000.0001) // Begin MONITOR dynamic field statistics
(PID.TID 0000.0001) // =======================================================
(PID.TID 0000.0001) %MON g__time_tsnumber             =                   120
(PID.TID 0000.0001) %MON g__time_secondsf             =   5.1840000000000E+06
(PID.TID 0000.0001) %MON g__dynstat_g_eta_max         =   2.8758835545929E-03
(PID.TID 0000.0001) %MON g__dynstat_g_eta_min         =  -2.9723663708505E-05
(PID.TID 0000.0001) %MON g__dynstat_g_eta_mean        =  -3.1746231620276E-18
(PID.TID 0000.0001) %MON g__dynstat_g_eta_sd          =   3.6435540191158E-05
(PID.TID 0000.0001) %MON g__dynstat_g_eta_del2        =   1.3223494527405E-06
(PID.TID 0000.0001) %MON g__dynstat_g_uvel_max        =   3.9137052952526E-05
(PID.TID 0000.0001) %MON g__dynstat_g_uvel_min        =  -5.9189968943455E-05
(PID.TID 0000.0001) %MON g__dynstat_g_uvel_mean       =   6.2779132656824E-09
(PID.TID 0000.0001) %MON g__dynstat_g_uvel_sd         =   2.3007547099639E-07
(PID.TID 0000.0001) %MON g__dynstat_g_uvel_del2       =   3.7420916954515E-08
(PID.TID 0000.0001) %MON g__dynstat_g_vvel_max        =   3.1625735035888E-04
(PID.TID 0000.0001) %MON g__dynstat_g_vvel_min        =  -6.1334452495708E-05
(PID.TID 0000.0001) %MON g__dynstat_g_vvel_mean       =  -2.1758910481689E-08
(PID.TID 0000.0001) %MON g__dynstat_g_vvel_sd         =   7.4664141250762E-07
(PID.TID 0000.0001) %MON g__dynstat_g_vvel_del2       =   5.0098328665883E-08
(PID.TID 0000.0001) %MON g__dynstat_g_wvel_max        =   8.6846455243554E-08
(PID.TID 0000.0001) %MON g__dynstat_g_wvel_min        =  -3.0278076480326E-08
(PID.TID 0000.0001) %MON g__dynstat_g_wvel_mean       =   5.5420863930763E-28
(PID.TID 0000.0001) %MON g__dynstat_g_wvel_sd         =   3.7133246353572E-10
(PID.TID 0000.0001) %MON g__dynstat_g_wvel_del2       =   7.5190106796631E-11
(PID.TID 0000.0001) %MON g__dynstat_g_theta_max       =   3.9513512338039E-01
(PID.TID 0000.0001) %MON g__dynstat_g_theta_min       =  -7.8712907175408E-04
(PID.TID 0000.0001) %MON g__dynstat_g_theta_mean      =   2.5211646127654E-06
(PID.TID 0000.0001) %MON g__dynstat_g_theta_sd        =   7.3986293111776E-04
(PID.TID 0000.0001) %MON g__dynstat_g_theta_del2      =   2.1012141435710E-05
(PID.TID 0000.0001) %MON g__dynstat_g_salt_max        =   9.1139003669153E-03
(PID.TID 0000.0001) %MON g__dynstat_g_salt_min        =  -7.4212384239547E-03
(PID.TID 0000.0001) %MON g__dynstat_g_salt_mean       =   4.7133580059877E-09
(PID.TID 0000.0001) %MON g__dynstat_g_salt_sd         =   1.7276822872382E-05
(PID.TID 0000.0001) %MON g__dynstat_g_salt_del2       =   9.1983211093382E-07
(PID.TID 0000.0001) %MON g__dynstat_g_sst_max         =   3.9513512338039E-01
(PID.TID 0000.0001) %MON g__dynstat_g_sst_min         =  -1.0030511514345E-04
(PID.TID 0000.0001) %MON g__dynstat_g_sst_mean        =   7.8589256610132E-05
(PID.TID 0000.0001) %MON g__dynstat_g_sst_sd          =   5.0274095610390E-03
(PID.TID 0000.0001) %MON g__dynstat_g_sst_del2        =   1.5452218690435E-04
(PID.TID 0000.0001) %MON g__dynstat_g_sss_max         =   9.1139003669153E-03
(PID.TID 0000.0001) %MON g__dynstat_g_sss_min         =  -7.4212384239547E-03
(PID.TID 0000.0001) %MON g__dynstat_g_sss_mean        =   7.2782252643688E-07
(PID.TID 0000.0001) %MON g__dynstat_g_sss_sd          =   1.4899957193973E-04
(PID.TID 0000.0001) %MON g__dynstat_g_sss_del2        =   9.3255858306052E-06
(PID.TID 0000.0001) %MON g__extforcing_g_qnet_max     =   0.0000000000000E+00
(PID.TID 0000.0001) %MON g__extforcing_g_qnet_min     =   0.0000000000000E+00
(PID.TID 0000.0001) %MON g__extforcing_g_qnet_mean    =   0.0000000000000E+00
(PID.TID 0000.0001) %MON g__extforcing_g_qnet_sd      =   0.0000000000000E+00
(PID.TID 0000.0001) %MON g__extforcing_g_qnet_del2    =   0.0000000000000E+00
(PID.TID 0000.0001) %MON g__extforcing_g_empmr_max    =   0.0000000000000E+00
(PID.TID 0000.0001) %MON g__extforcing_g_empmr_min    =   0.0000000000000E+00
(PID.TID 0000.0001) %MON g__extforcing_g_empmr_mean   =   0.0000000000000E+00
(PID.TID 0000.0001) %MON g__extforcing_g_empmr_sd     =   0.0000000000000E+00
(PID.TID 0000.0001) %MON g__extforcing_g_empmr_del2   =   0.0000000000000E+00
(PID.TID 0000.0001) %MON g__extforcing_g_fu_max       =   0.0000000000000E+00
(PID.TID 0000.0001) %MON g__extforcing_g_fu_min       =   0.0000000000000E+00
(PID.TID 0000.0001) %MON g__extforcing_g_fu_mean      =   0.0000000000000E+00
(PID.TID 0000.0001) %MON g__extforcing_g_fu_sd        =   0.0000000000000E+00
(PID.TID 0000.0001) %MON g__extforcing_g_fu_del2      =   0.0000000000000E+00
(PID.TID 0000.0001) %MON g__extforcing_g_fv_max       =   0.0000000000000E+00
(PID.TID 0000.0001) %MON g__extforcing_g_fv_min       =   0.0000000000000E+00
(PID.TID 0000.0001) %MON g__extforcing_g_fv_mean      =   0.0000000000000E+00
(PID.TID 0000.0001) %MON g__extforcing_g_fv_sd        =   0.0000000000000E+00
(PID.TID 0000.0001) %MON g__extforcing_g_fv_del2      =   0.0000000000000E+00
(PID.TID 0000.0001) %MON g__g_vcfl_g_uvel_max         =   1.6811380699573E-05
(PID.TID 0000.0001) %MON g__g_vcfl_g_vvel_max         =   3.0721865508318E-05
(PID.TID 0000.0001) %MON g__g_vcfl_g_wvel_max         =   5.0127644082308E-05
(PID.TID 0000.0001) %MON g__g_vcfl_g_W_hf_max         =   1.2030634579754E-04
(PID.TID 0000.0001) // =======================================================
(PID.TID 0000.0001) // End MONITOR dynamic field statistics
(PID.TID 0000.0001) // =======================================================
(PID.TID 0000.0001)  MDSREADFIELD: opening file: g_xx_theta.0000000000.001.001.data
(PID.TID 0000.0001)  MDSREADFIELD: opening file: xx_theta.0000000000.001.001.data
(PID.TID 0000.0001)  MDSREADFIELD: opening global file: bathymetry.bin
(PID.TID 0000.0001) // =======================================================
(PID.TID 0000.0001) // Field Model R_low (ini_masks_etc) at iteration          1
(PID.TID 0000.0001) // CMIN =         -5.200000000000000E+03
(PID.TID 0000.0001) // CMAX =         -1.200000000000000E+02
(PID.TID 0000.0001) // CINT =          1.881481481481482E+02
(PID.TID 0000.0001) // SYMBOLS (CMIN->CMAX): -abcdefghijklmnopqrstuvwxyz+
(PID.TID 0000.0001) //                  0.0: .
(PID.TID 0000.0001) // RANGE I (Lo:Hi:Step):(  -2:  93:   1)
(PID.TID 0000.0001) // RANGE J (Lo:Hi:Step):(  43:  -2:  -1)
(PID.TID 0000.0001) // RANGE K (Lo:Hi:Step):(   1:   1:   1)
(PID.TID 0000.0001) // =======================================================
(PID.TID 0000.0001) K =   1
(PID.TID 0000.0001) //                I=7       I=17      I=27      I=37      I=47      I=57      I=67      I=77      I=87
(PID.TID 0000.0001) // |--J--|210123456|890123456|890123456|890123456|890123456|890123456|890123456|890123456|890123456|890123
(PID.TID 0000.0001) //     43 ................................................................................................
(PID.TID 0000.0001) //     42 .............................................zyxxmgfeeefefgimnpwwwy..+zyy.....yyyyoiiihhz+......
(PID.TID 0000.0001) //     41 ................................................................................................
(PID.TID 0000.0001) //     40 +qlloqz+.++++zzz++++++..................................................................+++qlloq
(PID.TID 0000.0001) //     39 uslloorzzzzzzzzz+...++.....................................................yxxz........+zvuslloo
(PID.TID 0000.0001) //     38 smqpporzzzzzz+++...........................................................zxxy+......zyyvsmqppo
(PID.TID 0000.0001) //     37 smmmuz..................................................................++...zy+...yttyy.+smmmuz
(PID.TID 0000.0001) //     36 yutt+.........................................mm++....................+++++++znmm.yoowssvuyutt+.
(PID.TID 0000.0001) //     35 w++++.................................+zzz..rrmmkk+...+gghn...........+++....+nmiijlsoopuww++++.
(PID.TID 0000.0001) //     34 +.....................................+vvy.ggqyxv+y.ccdffhim..................+nihhikkihhm+.....
(PID.TID 0000.0001) //     33 w+.....................................uuz---h------aaabdefin+.................zqvddflifffw+....
(PID.TID 0000.0001) //     32 m+.....................................+t----h---------acdfgnn................+++gdffkofffm+....
(PID.TID 0000.0001) //     31 m......................................-----ad--------abddegil..............qbaafccdhqqgddm.....
(PID.TID 0000.0001) //     30 i.....................................f----b--b------------abd............zfbb--fbcdosjfddi.....
(PID.TID 0000.0001) //     29 i...................................tu----e---fjg----------abdf...........eaac--abfmijaadgi.....
(PID.TID 0000.0001) //     28 z.................................+xfl-------------------bdedefi.........qbaa---aemfbbaaejz.....
(PID.TID 0000.0001) //     27 .................xx..............+wfgfpf--------eallc---bbbccefgi...+++x.qb-----akfa---ah.......
(PID.TID 0000.0001) //     26 .................xnn...........+vd---dna------a--aicfna---aabdfghku.++xssuy-----bgca---ci.......
(PID.TID 0000.0001) //     25 .................iiik...oo+...+ivd---doaa-bc--ilglf--aa---aabcghhkll...ssum+xaaacjbaabdjk.......
(PID.TID 0000.0001) //     24 ...............xnheeft.kkk+...uii.aagdm----aa-----a-------bbbcdefjljjju.zummwwbbchba--abi.......
(PID.TID 0000.0001) //     23 ...............xgheefp.iikw...uuw..fihi----fed-----eaaa--bbbbcdfflkjiiiq....zykccefa--abd.......
(PID.TID 0000.0001) //     22 quss...........bbelffslffkk...zz.wqkeeqoheccdfa-----egabaabcdddegghliiiqq......xeeehheehccquss..
(PID.TID 0000.0001) //     21 cbbeir........nbbcdjhqdddiiz.....wqfeelgghmedea-----bibbcddddddefghklnqoo........ieeflhgcccbbeir
(PID.TID 0000.0001) //     20 cbbder.......ldcccdgkccccidd......z.vkkktqqhegg----aaacddddddddefghkiiijl.........nhfa--gfcbbder
(PID.TID 0000.0001) //     19 hcdaaf.......kddosggpaaaibbccx...+z+.....r+nlec---agaaabcddccddefikfgffff...........d---cjhcdaaf
(PID.TID 0000.0001) //     18 hd---d.......kglggvliaaaibbcaaeaiv++...qqzolhecccfdgkaabcdfccdeeikgfgffdd+..........d---djhd---d
(PID.TID 0000.0001) //     17 hc---c.......l.feewlfaaaoaa----aiv.....qqnllslmlofcdbaacceffffhhligfigeddj.........hd---ckhc---c
(PID.TID 0000.0001) //     16 gba--c......tn.ddgnlfdaaqa-----lv.......vnllvllnwv--accivomfffhilhgfffeddjf........re--aeigba--c
(PID.TID 0000.0001) //     15 fb--dpz....+ll.ccdfhmdddlc----av.........otsxoomv---abccddfihgijkhgfffeejfff......+fd---ckfb--dp
(PID.TID 0000.0001) //     14 fc--mcl....weeqbaafilkfend--eagy.........hhstofft----aacdheefijkmjhhjijiffff.....zlfdaaadlfc--mc
(PID.TID 0000.0001) //     13 hcclbbg....nccobaaiddgkffqrqeaal.........eeutqfft------aaceeffhijlkjhhigfffq....+jgfodccflhcclbb
(PID.TID 0000.0001) //     12 hhgaaacw+iiicclemhdddfliigfdcaabfaaaz....ccsurqpc--------abcifffikiiihhggff.....kbbbdfffglhhgaaa
(PID.TID 0000.0001) //     11 kgcaaacbbifccennhbbdefnihgfdccaaaa----..dcccnt.ncab-------aabcdfilhggjiggff....l---abcefjlkgcaaa
(PID.TID 0000.0001) //     10 kfcaaccbdaacfrllfbbdegkmmljhfdddba----d.dcccfx.nyrebaba----abcdgilhfeegijgi..+w--aa-abcfilkfcaac
(PID.TID 0000.0001) //      9 lffcdcccaaaoqsolfdeehikihhlllgfedcccccdmdcccf.vyfaaaaaaaa--abdehmjhfeeefglv.++w-----abcdfklffcdc
(PID.TID 0000.0001) //      8 liffjklcaafddffeeccvznkfffhhhlkjifgjkkfeeddfsyvcaaaaaaccdcccdfgjligedbbceg+.++xffn--cfddefliffjk
(PID.TID 0000.0001) //      7 hmqnnbbkkf--bmbaabbgtykfddeffeeddccdfhlffeelfbaaaaaacddeghgjgjlligeddaaabedfiiiiiisvkfkecchmqnnb
(PID.TID 0000.0001) //      6 cca-------------aabcelttdddedddddccccdfkkiiffbaaaabcdgimmkmefecaaabbbaaabbdfiiiiispmmregifcca---
(PID.TID 0000.0001) //      5 --------a-------aaccehhhiddeddddddcccdfiikomodddefffmlmigedccaaaaaaaababbbdfiijsqgeccccbaa------
(PID.TID 0000.0001) //      4 --ahebaabbbbbeihffgijiiiijpywnnpokkomkiiijmmmolkommmgffeeedccaaaaaabbcccefhmz..yjgeccccbaa--aheb
(PID.TID 0000.0001) //      3 gffhhrpjiiwyy............................yxotmjjjjgfeeeeeeddeffffheddeghjkyy..yqjgeddccdbbgffhhr
(PID.TID 0000.0001) //      2 .............................................zyxxmgfeeefefgimnpwwwy..+zyy.....yyyyoiiihhz+......
(PID.TID 0000.0001) //      1 ................................................................................................
(PID.TID 0000.0001) //      0 +qlloqz+.++++zzz++++++..................................................................+++qlloq
(PID.TID 0000.0001) //     -1 uslloorzzzzzzzzz+...++.....................................................yxxz........+zvuslloo
(PID.TID 0000.0001) //     -2 ................................................................................................
(PID.TID 0000.0001) // =======================================================
(PID.TID 0000.0001) // END OF FIELD                                          =
(PID.TID 0000.0001) // =======================================================
(PID.TID 0000.0001) 
(PID.TID 0000.0001) // =======================================================
(PID.TID 0000.0001) // Field Model Ro_surf (ini_masks_etc) at iteration          1
(PID.TID 0000.0001) // CMIN =          1.000000000000000E+32
(PID.TID 0000.0001) // CMAX =         -1.000000000000000E+32
(PID.TID 0000.0001) // CINT =          0.000000000000000E+00
(PID.TID 0000.0001) // SYMBOLS (CMIN->CMAX): -abcdefghijklmnopqrstuvwxyz+
(PID.TID 0000.0001) //                  0.0: .
(PID.TID 0000.0001) // RANGE I (Lo:Hi:Step):(  -2:  93:   1)
(PID.TID 0000.0001) // RANGE J (Lo:Hi:Step):(  43:  -2:  -1)
(PID.TID 0000.0001) // RANGE K (Lo:Hi:Step):(   1:   1:   1)
(PID.TID 0000.0001) // =======================================================
(PID.TID 0000.0001) // =======================================================
(PID.TID 0000.0001) // END OF FIELD                                          =
(PID.TID 0000.0001) // =======================================================
(PID.TID 0000.0001) 
(PID.TID 0000.0001) // =======================================================
(PID.TID 0000.0001) // Field hFacC at iteration          1
(PID.TID 0000.0001) // CMIN =          1.000000000000000E+00
(PID.TID 0000.0001) // CMAX =          1.000000000000000E+00
(PID.TID 0000.0001) // CINT =          0.000000000000000E+00
(PID.TID 0000.0001) // SYMBOLS (CMIN->CMAX): -abcdefghijklmnopqrstuvwxyz+
(PID.TID 0000.0001) //                  0.0: .
(PID.TID 0000.0001) // RANGE I (Lo:Hi:Step):(  -2:  93:   1)
(PID.TID 0000.0001) // RANGE J (Lo:Hi:Step):(  43:  -2:  -1)
(PID.TID 0000.0001) // RANGE K (Lo:Hi:Step):(   1:   1:   1)
(PID.TID 0000.0001) // =======================================================
(PID.TID 0000.0001) // =======================================================
(PID.TID 0000.0001) // END OF FIELD                                          =
(PID.TID 0000.0001) // =======================================================
(PID.TID 0000.0001) 
(PID.TID 0000.0001) // =======================================================
(PID.TID 0000.0001) // Field hFacW at iteration          1
(PID.TID 0000.0001) // CMIN =          1.000000000000000E+00
(PID.TID 0000.0001) // CMAX =          1.000000000000000E+00
(PID.TID 0000.0001) // CINT =          0.000000000000000E+00
(PID.TID 0000.0001) // SYMBOLS (CMIN->CMAX): -abcdefghijklmnopqrstuvwxyz+
(PID.TID 0000.0001) //                  0.0: .
(PID.TID 0000.0001) // RANGE I (Lo:Hi:Step):(  -2:  93:   1)
(PID.TID 0000.0001) // RANGE J (Lo:Hi:Step):(  43:  -2:  -1)
(PID.TID 0000.0001) // RANGE K (Lo:Hi:Step):(   1:   1:   1)
(PID.TID 0000.0001) // =======================================================
(PID.TID 0000.0001) // =======================================================
(PID.TID 0000.0001) // END OF FIELD                                          =
(PID.TID 0000.0001) // =======================================================
(PID.TID 0000.0001) 
(PID.TID 0000.0001) // =======================================================
(PID.TID 0000.0001) // Field hFacS at iteration          1
(PID.TID 0000.0001) // CMIN =          1.000000000000000E+00
(PID.TID 0000.0001) // CMAX =          1.000000000000000E+00
(PID.TID 0000.0001) // CINT =          0.000000000000000E+00
(PID.TID 0000.0001) // SYMBOLS (CMIN->CMAX): -abcdefghijklmnopqrstuvwxyz+
(PID.TID 0000.0001) //                  0.0: .
(PID.TID 0000.0001) // RANGE I (Lo:Hi:Step):(  -2:  93:   1)
(PID.TID 0000.0001) // RANGE J (Lo:Hi:Step):(  43:  -2:  -1)
(PID.TID 0000.0001) // RANGE K (Lo:Hi:Step):(   1:   1:   1)
(PID.TID 0000.0001) // =======================================================
(PID.TID 0000.0001) // =======================================================
(PID.TID 0000.0001) // END OF FIELD                                          =
(PID.TID 0000.0001) // =======================================================
(PID.TID 0000.0001) 
(PID.TID 0000.0001) %MON g__g_vcflfCori_max           =   1.4226580169407E-04
(PID.TID 0000.0001) %MON g__g_vcflfCori_min           =  -1.4226580169407E-04
(PID.TID 0000.0001) %MON g__g_vcflfCori_mean          =   7.5291817533716E-23
(PID.TID 0000.0001) %MON g__g_vcflfCori_sd            =   9.6335367303778E-05
(PID.TID 0000.0001) %MON g__g_vcflfCoriG_max          =   1.4112379284621E-04
(PID.TID 0000.0001) %MON g__g_vcflfCoriG_min          =  -1.4323448157692E-04
(PID.TID 0000.0001) %MON g__g_vcflfCoriG_mean         =  -3.6726790147928E-06
(PID.TID 0000.0001) %MON g__g_vcflfCoriG_sd           =   9.7510077443652E-05
(PID.TID 0000.0001) %MON g__g_vcflfCoriCos_max        =   1.4535550371427E-04
(PID.TID 0000.0001) %MON g__g_vcflfCoriCos_min        =   3.0239529651320E-05
(PID.TID 0000.0001) %MON g__g_vcflfCoriCos_mean       =   1.0260497651149E-04
(PID.TID 0000.0001) %MON g__g_vcflfCoriCos_sd         =   3.6683828681187E-05
(PID.TID 0000.0001) INI_CG2D: CG2D normalisation factor =  6.5682677425711703E-05
(PID.TID 0000.0001) 
(PID.TID 0000.0001)  MDSREADFIELD: opening global file: lev_t.bin
(PID.TID 0000.0001) // =======================================================
(PID.TID 0000.0001) // Field Initial Temperature at iteration          1
(PID.TID 0000.0001) // CMIN =         -1.900000000000000E+00
(PID.TID 0000.0001) // CMAX =          2.973338890075684E+01
(PID.TID 0000.0001) // CINT =          1.171606996324327E+00
(PID.TID 0000.0001) // SYMBOLS (CMIN->CMAX): -abcdefghijklmnopqrstuvwxyz+
(PID.TID 0000.0001) //                  0.0: .
(PID.TID 0000.0001) // RANGE I (Lo:Hi:Step):(   1:  90:   1)
(PID.TID 0000.0001) // RANGE J (Lo:Hi:Step):(  40:   1:  -1)
(PID.TID 0000.0001) // RANGE K (Lo:Hi:Step):(   1:   1:   1)
(PID.TID 0000.0001) // =======================================================
(PID.TID 0000.0001) K =   1
(PID.TID 0000.0001)                I=10      I=20      I=30      I=40      I=50      I=60      I=70      I=80      I=90
(PID.TID 0000.0001) |--J--|123456789|123456789|123456789|123456789|123456789|123456789|123456789|123456789|123456789|
(PID.TID 0000.0001)     40 bccdd.baa----abdedd..................................................................bbbbb
(PID.TID 0000.0001)     39 ccdddddccbbbaa...ed.....................................................----........bbbbbb
(PID.TID 0000.0001)     38 fffgfedeedddc...........................................................-----......cbbbcde
(PID.TID 0000.0001)     37 ghh..................................................................bc...bbc...edeed.defg
(PID.TID 0000.0001)     36 hh.........................................ddcb....................dcccbabccdd.eefghhihhih
(PID.TID 0000.0001)     35 hh.................................aaab..dddeddd...ffggg...........ccc....ddeeeffghijjjjih
(PID.TID 0000.0001)     34 ...................................babb.deeeeeee.ffffgghh..................ccdffghijkkkj..
(PID.TID 0000.0001)     33 ....................................accdddeeeeefffffgghhiii.................bcfijkkllllkk.
(PID.TID 0000.0001)     32 ....................................bdddeffgffgghhhhhiiijjj................dccglmnmmmmlll.
(PID.TID 0000.0001)     31 ....................................fghiiiijjjjjjkkkkklllkk..............ikkjjmooooonnmm..
(PID.TID 0000.0001)     30 ...................................mmmnmmmmmmmmmmmmmnnnnnmm............moqrrrqrqqqpppooo..
(PID.TID 0000.0001)     29 .................................pqqqqqpppppppppoppoppppponm...........ssssssrrrrrqqqqpp..
(PID.TID 0000.0001)     28 ...............................prssssrrrsssrrrrrrrrrrrrrqqpoo.........uttssstssrssrrrqqq..
(PID.TID 0000.0001)     27 ..............vv..............stuttuuuuutuuuuuuuuuuttttssrrqqq...stuu.vvvuuuuutttttsss....
(PID.TID 0000.0001)     26 ..............vvv...........uuvvvvvwwwwwwwwvvvvvvvvvuuutttsssttv.uuvxxwwwwwwvvvvuuttsr....
(PID.TID 0000.0001)     25 ..............wwwx...xxx...vvvxxxxxyyxxxxxxxxxwwwwwvvvvvuuuuuvwwx...xxxxxxwwwwwwvvutsr....
(PID.TID 0000.0001)     24 ............wwwwxyy.xxyy...wxx.yyyyyyyyyyyxxxxxxxxwwwwwwwvvwwxxyywww.xxxxxxxxxxwwwvvur....
(PID.TID 0000.0001)     23 ............xxxyyyz.xyyy...xxx..yyyyzzyyyyyyyyxxxxxxxxxwwwwwxxxwwwwwx....vwxxxxwwwwwvu....
(PID.TID 0000.0001)     22 w...........xxyyyzyyyyyz...xx.yyzzzzzzzzzzzzzyyzyyyyyyxxwwxxxxwvvvwwxw......yyyyxxxxxxwxxw
(PID.TID 0000.0001)     21 xxx........xxxxyyzzzzzzz+.....zyzzzzzzz++zzzzyyyyyyyyxxwvvwwwwvvvvvvvu........yyyyyyyyyxxx
(PID.TID 0000.0001)     20 xww.......xyyyyxyyzzzzzz+......z.zzzzz+++zzzzzzyyyyyxxxxwvwxwvuuuuuuut.........yyyyxxxxwww
(PID.TID 0000.0001)     19 vvv.......yyyyxwwxyzyyzzzzz...zzz.....++++++z++z+zzzyyyyxxxxwwvvvvvvvu...........yyxxxwwww
(PID.TID 0000.0001)     18 uut.......zzyyywwxyzyyyyzzyzzzzzz...z+z++++zz+++++++zzzyyyyxxwwwvvvvvtt..........yyxxwvvwv
(PID.TID 0000.0001)     17 uus.......z.yyyyyyxyzzyyyyyyyzz.....yzzzzzzzzzzzzzzzzzzyyyyxxwwvuuvvuut.........yyyxxwttvu
(PID.TID 0000.0001)     16 utr......yy.zyyyyxxxxxxxwxxxxy.......yyyyyyyyyyyyyyyyyyyyyyyxxwvvvuuutts........xyyyxwvuuu
(PID.TID 0000.0001)     15 ttrr....xxx.xxxwxwwwwvwwvvvww.........xwxxxxxxxxxxxxxxxxxyyyxwwwvvuttssrr......wxxxxxwwvuu
(PID.TID 0000.0001)     14 ttsq....xyxwwxwvwwwvutuuuuuuu.........wwvwwwwvwvvwwwvwvvwwwwwwvvvuuutssrr.....vwwwwwwwvvvu
(PID.TID 0000.0001)     13 tttr....wwwvvvtttuuuutttssttt.........vvvuuuuuuutttttuuuuuvwwwuuuttttssrr....uvvvvvvvvvvut
(PID.TID 0000.0001)     12 sssssstttutssssrrrrrstrqqrrssqqrrq....uuttssssrrrrrrrrrrrstttssssrssrrqp.....uuuttssttssss
(PID.TID 0000.0001)     11 poprsssrqqqqqrqppooopqpoppppppppppp..sssrrr.rqpppqqqqppppqqqoppqqqqrqqpp....prsrqqqqqppppq
(PID.TID 0000.0001)     10 lllmoooonmnnmnnnnmmmmmmlmmlllmnnnnon.qqqppp.ppppppooooooooonmnnnonnooooo..nmoponnmnnnnnmll
(PID.TID 0000.0001)      9 ihhiiiihhhhhhiiihiiiiihhhiiiijjkkmnllnnnnn.mmmmnnnnmmmmnnmmlklllllklllll.mllmmllkjiijjihhi
(PID.TID 0000.0001)      8 eeeeeeeedefgggffeeffggffffggghiiiijjijklklkkkkkkkklllkkkkjjiiijkjjjjjjkj.kkjjiihggffffedde
(PID.TID 0000.0001)      7 cccccddeedddefeddddddddddefeefffffgggghiiiiiijjjihhgggghhhhhghhhhhhhiiiihiihhgfeddddddcccc
(PID.TID 0000.0001)      6 abbcccddcccccdddddccdddddddccddddddeeeeffggggghhgeddddddeeeeeeefggggghggggffeedccbbbbbbbba
(PID.TID 0000.0001)      5 bbbcccccccccccccccccccccbbccccdddddddcccddeeddeedcbbbbbbccccccdddeeeeeddddddccbbbbaaaaaaab
(PID.TID 0000.0001)      4 bbbbbbbaaabbbbbbbbbbbbaabbabbbbcbbbbbbbbbbbbbbbbbbbabbaaabbbbbbbbbbbbbbbbb..a--aaabbbaaabb
(PID.TID 0000.0001)      3 bbbbaaa-a-............................bbaaaaaaaaaaaaaaaaaaaaaaaaaaaaaaaab..aaaaaaaabbbaaaa
(PID.TID 0000.0001)      2 ..........................................baaaaaaaaaaaa-------aa..aaaa.....aaaaaaaaaaaa...
(PID.TID 0000.0001)      1 ..........................................................................................
(PID.TID 0000.0001) // =======================================================
(PID.TID 0000.0001) // END OF FIELD                                          =
(PID.TID 0000.0001) // =======================================================
(PID.TID 0000.0001) 
(PID.TID 0000.0001)  MDSREADFIELD: opening global file: lev_s.bin
(PID.TID 0000.0001) // =======================================================
(PID.TID 0000.0001) // Field Initial Salinity at iteration          1
(PID.TID 0000.0001) // CMIN =          2.975276947021484E+01
(PID.TID 0000.0001) // CMAX =          3.747562789916992E+01
(PID.TID 0000.0001) // CINT =          2.860317936650029E-01
(PID.TID 0000.0001) // SYMBOLS (CMIN->CMAX): -abcdefghijklmnopqrstuvwxyz+
(PID.TID 0000.0001) //                  0.0: .
(PID.TID 0000.0001) // RANGE I (Lo:Hi:Step):(   1:  90:   1)
(PID.TID 0000.0001) // RANGE J (Lo:Hi:Step):(  40:   1:  -1)
(PID.TID 0000.0001) // RANGE K (Lo:Hi:Step):(   1:   1:   1)
(PID.TID 0000.0001) // =======================================================
(PID.TID 0000.0001) K =   1
(PID.TID 0000.0001)                I=10      I=20      I=30      I=40      I=50      I=60      I=70      I=80      I=90
(PID.TID 0000.0001) |--J--|123456789|123456789|123456789|123456789|123456789|123456789|123456789|123456789|123456789|
(PID.TID 0000.0001)     40 qrrrr.oonnooopqtutt..................................................................mnnop
(PID.TID 0000.0001)     39 rssrrrrrrrqqpn...ut.....................................................mmmm........opqqqr
(PID.TID 0000.0001)     38 ssrrqqqqrrqpo...........................................................lkkll......onoqrrs
(PID.TID 0000.0001)     37 ssr..................................................................hg...lln...qppqr.rrrs
(PID.TID 0000.0001)     36 rr.........................................lkji....................feeegikmoop.pqrssssssss
(PID.TID 0000.0001)     35 rr.................................kkkk..lllllki...jijjj...........aa-....opqrrrrrrrssttss
(PID.TID 0000.0001)     34 ...................................jlll.kklllllk.ijkkkjih..................hlpqrqrrsstts..
(PID.TID 0000.0001)     33 ....................................iklkkkkkkkkkjkkjjjjjjii.................jmprrsstttttt.
(PID.TID 0000.0001)     32 ....................................iklllkllllllllkkkkkkkji................gilpstuuttuuut.
(PID.TID 0000.0001)     31 ....................................lmnonnnnoooonnmmmmllkjj..............loopqtvvvuuuuuu..
(PID.TID 0000.0001)     30 ...................................pppppppqqqqpppoooonnmlkk............ptvxwwvvwvvvvvvvu..
(PID.TID 0000.0001)     29 .................................pqqrqqqqqqrrrqqppqqqpponmll...........vxxxxxxwwwwwxwwxw..
(PID.TID 0000.0001)     28 ...............................prrrrrqqrrrrrsrrsrssssssrqonmm.........wxxxxxxxyyyyyyyyxx..
(PID.TID 0000.0001)     27 ..............xx..............prrrrrrrrrssssssstttssssssrqpoop...uwww.wwxxxyyy++zzzzyy....
(PID.TID 0000.0001)     26 ..............wxx...........ppqrrrrrrsssrrstsstttssrrrrrrrqppqqp.wwwvvwwwwwxyy+++zzyxw....
(PID.TID 0000.0001)     25 ..............wxxv...kkk...ooopqrrrrrssrrrrrrrssssqqpppppppppppoo...vvutuuvvwxyyyxxvvu....
(PID.TID 0000.0001)     24 ............uvvwwur.lmlk...nmm.pqqqqrrrrrqqqqrrqqrpppppooooonmmmnooo.uuuuuuttuvvvuvuut....
(PID.TID 0000.0001)     23 ............vvuvtqp.lmml...mln..ppppqpqppppppqpppppppppqppponnnnnoopm....xvuuuvvvvuuut....
(PID.TID 0000.0001)     22 r...........vuttsqqpnppn...mm.oppqqrrqqqqqqppppqqrrrqqqrrppppoopooomjj......uuvvvvvuttssrr
(PID.TID 0000.0001)     21 qmm........ttsssssssrsqon.....opqqqqqqqrrrrqqqssssssrrrrrrrrpqqqppomll........tvvvvuttssrr
(PID.TID 0000.0001)     20 sqq.......sttssrrsrrrrpol......p.qrqpqrrrrrrrstttttsssrrsssrqrrrrqqqpo.........wwwvvvuuutt
(PID.TID 0000.0001)     19 tsr.......ssssrrrrpppppnmmm...oqq.....qrqqsrrstttuuuttssttssrrssrrrrqq...........wwwvuvvvv
(PID.TID 0000.0001)     18 wut.......ssrrrrrqppppppppoooorrr...poqqqprrrttttuuutuuuuuutttttttutsss..........yyxwwxwxx
(PID.TID 0000.0001)     17 wwu.......s.rrrrrrqppppqqqqqqqr.....rrsrqrsssuusrtuuuvvvwwvvvuuuuutttss.........xyzyyyyxxx
(PID.TID 0000.0001)     16 vvt......ss.qrrssrqrqpqrrrrrrr.......ssrrstsstusrsuuuvwwwwxxwwvvvuttttsr........yz+zzzxwww
(PID.TID 0000.0001)     15 utss....stt.rrssstttsrrsrstsr.........ssstttssttsuuttuvvvvwxwwwwwuttsssrr......xyyyyxyyxwv
(PID.TID 0000.0001)     14 utts....sstrrssstuuuuuuuuuutt.........stttuutttttttuttttttuvvvvvvutsrqrrr.....vxxwwwwxwvwv
(PID.TID 0000.0001)     13 uuut....ttttttttuuuuuvtuuuuuu.........ttttuutttttttuutsssstttttstsqrqqppp....uwwwvuvvvutvv
(PID.TID 0000.0001)     12 ttttttttttttttttttttttssuuuuutuuut....tttttttttttsssssrrrrrrrqqqqqppppoo.....rvvuuttttttuu
(PID.TID 0000.0001)     11 rqsttttttttuuttttsssssrrstttttttsss..ttttts.tsssrrrrqqqqqppppoonnooooooo....oruttttsssrqrs
(PID.TID 0000.0001)     10 pppqrssrqqrqpqrssrrqqqqqqrrrrrrrrrrs.sssssr.rssrrqqpppppppooooonnnoooonn..moqrrrqqqqqqqqqq
(PID.TID 0000.0001)      9 oonooooooooonnnooooooooooppppppqqqqqrrrqrq.pppqqqqqppppppppppoooooooooll.lmoqqqqppooooopoo
(PID.TID 0000.0001)      8 nnnoonooooooonnnnnnnoooonoonoooppopqqqqqqqppopppqqqpppppppppppppppooopon.lnopppoooonnnnooo
(PID.TID 0000.0001)      7 ooooooooooopponnnooooooonnnnnonnooooooooopppppppoooooooooopppppppppoopqnnmnoooonnnonnnnnno
(PID.TID 0000.0001)      6 oooonnoonnnnooooooooooooonnnnnnnnnnnnnnnnoooopppooooooooooooooppppppppppoooooooonnnnnmnnnn
(PID.TID 0000.0001)      5 oooonnnnnnnnnnnnnnnnnoooooonnnnnnonnnnnnnnnoooooooooooonnnnnnooooooopoooonoooonnnnnnnooooo
(PID.TID 0000.0001)      4 oooonnnooonnnnnnnnnnnnnnoooooonnnooooonnnooooooooppponnnnmmmnnnnmnnoonnnnn..nnnooooooooooo
(PID.TID 0000.0001)      3 ooonnnnnnn............................nnoooooonnooooonnnnnnnoonnnnnnnnmmm..ooopooooooooooo
(PID.TID 0000.0001)      2 ..........................................pppooooonnnnnnoooppppo..nnnn.....qqqpppoooooo...
(PID.TID 0000.0001)      1 ..........................................................................................
(PID.TID 0000.0001) // =======================================================
(PID.TID 0000.0001) // END OF FIELD                                          =
(PID.TID 0000.0001) // =======================================================
(PID.TID 0000.0001) 
(PID.TID 0000.0001) Start initial hydrostatic pressure computation
(PID.TID 0000.0001) Pressure is predetermined for buoyancyRelation OCEANIC
(PID.TID 0000.0001) 
(PID.TID 0000.0001)  MDSREADFIELD: opening file: xx_theta.0000000000.001.001.data
(PID.TID 0000.0001)  MDSREADFIELD: opening file: xx_salt.0000000000.001.001.data
(PID.TID 0000.0001)  MDSREADFIELD: opening file: xx_diffkr.0000000000.001.001.data
(PID.TID 0000.0001)  MDSREADFIELD: opening global file: trenberth_taux.bin
(PID.TID 0000.0001)  MDSREADFIELD: opening global file: trenberth_tauy.bin
(PID.TID 0000.0001)  MDSREADFIELD: opening global file: ncep_qnet.bin
(PID.TID 0000.0001)  MDSREADFIELD: opening global file: lev_sst.bin
(PID.TID 0000.0001)  MDSREADFIELD: opening global file: lev_sss.bin
(PID.TID 0000.0001) // =======================================================
(PID.TID 0000.0001) // Model current state
(PID.TID 0000.0001) // =======================================================
(PID.TID 0000.0001) 
(PID.TID 0000.0001) // =======================================================
(PID.TID 0000.0001) // Begin MONITOR dynamic field statistics
(PID.TID 0000.0001) // =======================================================
(PID.TID 0000.0001) %MON time_tsnumber                =                     0
(PID.TID 0000.0001) %MON time_secondsf                =   0.0000000000000E+00
(PID.TID 0000.0001) %MON dynstat_eta_max              =   0.0000000000000E+00
(PID.TID 0000.0001) %MON dynstat_eta_min              =   0.0000000000000E+00
(PID.TID 0000.0001) %MON dynstat_eta_mean             =   0.0000000000000E+00
(PID.TID 0000.0001) %MON dynstat_eta_sd               =   0.0000000000000E+00
(PID.TID 0000.0001) %MON dynstat_eta_del2             =   0.0000000000000E+00
(PID.TID 0000.0001) %MON dynstat_uvel_max             =   0.0000000000000E+00
(PID.TID 0000.0001) %MON dynstat_uvel_min             =   0.0000000000000E+00
(PID.TID 0000.0001) %MON dynstat_uvel_mean            =   0.0000000000000E+00
(PID.TID 0000.0001) %MON dynstat_uvel_sd              =   0.0000000000000E+00
(PID.TID 0000.0001) %MON dynstat_uvel_del2            =   0.0000000000000E+00
(PID.TID 0000.0001) %MON dynstat_vvel_max             =   0.0000000000000E+00
(PID.TID 0000.0001) %MON dynstat_vvel_min             =   0.0000000000000E+00
(PID.TID 0000.0001) %MON dynstat_vvel_mean            =   0.0000000000000E+00
(PID.TID 0000.0001) %MON dynstat_vvel_sd              =   0.0000000000000E+00
(PID.TID 0000.0001) %MON dynstat_vvel_del2            =   0.0000000000000E+00
(PID.TID 0000.0001) %MON dynstat_wvel_max             =   0.0000000000000E+00
(PID.TID 0000.0001) %MON dynstat_wvel_min             =   0.0000000000000E+00
(PID.TID 0000.0001) %MON dynstat_wvel_mean            =   0.0000000000000E+00
(PID.TID 0000.0001) %MON dynstat_wvel_sd              =   0.0000000000000E+00
(PID.TID 0000.0001) %MON dynstat_wvel_del2            =   0.0000000000000E+00
(PID.TID 0000.0001) %MON dynstat_theta_max            =   2.9733388900757E+01
(PID.TID 0000.0001) %MON dynstat_theta_min            =  -1.9000000000000E+00
(PID.TID 0000.0001) %MON dynstat_theta_mean           =   3.6197074872154E+00
(PID.TID 0000.0001) %MON dynstat_theta_sd             =   4.4174614344707E+00
(PID.TID 0000.0001) %MON dynstat_theta_del2           =   1.5097318825836E-01
(PID.TID 0000.0001) %MON dynstat_salt_max             =   3.7475627899170E+01
(PID.TID 0000.0001) %MON dynstat_salt_min             =   2.9752769470215E+01
(PID.TID 0000.0001) %MON dynstat_salt_mean            =   3.4718006161475E+01
(PID.TID 0000.0001) %MON dynstat_salt_sd              =   2.9628819587990E-01
(PID.TID 0000.0001) %MON dynstat_salt_del2            =   2.6251884861846E-02
(PID.TID 0000.0001) %MON dynstat_sst_max              =   2.9733388900757E+01
(PID.TID 0000.0001) %MON dynstat_sst_min              =  -1.9000000000000E+00
(PID.TID 0000.0001) %MON dynstat_sst_mean             =   1.8484769748906E+01
(PID.TID 0000.0001) %MON dynstat_sst_sd               =   9.1795841476207E+00
(PID.TID 0000.0001) %MON dynstat_sst_del2             =   2.8475929976926E-01
(PID.TID 0000.0001) %MON dynstat_sss_max              =   3.7475627899170E+01
(PID.TID 0000.0001) %MON dynstat_sss_min              =   2.9752769470215E+01
(PID.TID 0000.0001) %MON dynstat_sss_mean             =   3.4849925275207E+01
(PID.TID 0000.0001) %MON dynstat_sss_sd               =   9.6344930396289E-01
(PID.TID 0000.0001) %MON dynstat_sss_del2             =   8.4229940575091E-02
(PID.TID 0000.0001) %MON extforcing_qnet_max          =   4.4161361694336E+02
(PID.TID 0000.0001) %MON extforcing_qnet_min          =  -1.8132531738281E+02
(PID.TID 0000.0001) %MON extforcing_qnet_mean         =  -1.6512526001044E+01
(PID.TID 0000.0001) %MON extforcing_qnet_sd           =   1.0987288293460E+02
(PID.TID 0000.0001) %MON extforcing_qnet_del2         =   9.6689454498868E+00
(PID.TID 0000.0001) %MON extforcing_qsw_max           =   0.0000000000000E+00
(PID.TID 0000.0001) %MON extforcing_qsw_min           =   0.0000000000000E+00
(PID.TID 0000.0001) %MON extforcing_qsw_mean          =   0.0000000000000E+00
(PID.TID 0000.0001) %MON extforcing_qsw_sd            =   0.0000000000000E+00
(PID.TID 0000.0001) %MON extforcing_qsw_del2          =   0.0000000000000E+00
(PID.TID 0000.0001) %MON extforcing_empmr_max         =   0.0000000000000E+00
(PID.TID 0000.0001) %MON extforcing_empmr_min         =   0.0000000000000E+00
(PID.TID 0000.0001) %MON extforcing_empmr_mean        =   0.0000000000000E+00
(PID.TID 0000.0001) %MON extforcing_empmr_sd          =   0.0000000000000E+00
(PID.TID 0000.0001) %MON extforcing_empmr_del2        =   0.0000000000000E+00
(PID.TID 0000.0001) %MON extforcing_fu_max            =   2.7877888083458E-01
(PID.TID 0000.0001) %MON extforcing_fu_min            =  -1.7088057100773E-01
(PID.TID 0000.0001) %MON extforcing_fu_mean           =   1.6001735152566E-02
(PID.TID 0000.0001) %MON extforcing_fu_sd             =   9.1062350670783E-02
(PID.TID 0000.0001) %MON extforcing_fu_del2           =   7.6925174727079E-03
(PID.TID 0000.0001) %MON extforcing_fv_max            =   2.3312132060528E-01
(PID.TID 0000.0001) %MON extforcing_fv_min            =  -1.7813690006733E-01
(PID.TID 0000.0001) %MON extforcing_fv_mean           =  -5.2588977395051E-03
(PID.TID 0000.0001) %MON extforcing_fv_sd             =   4.8248606070107E-02
(PID.TID 0000.0001) %MON extforcing_fv_del2           =   4.8562771937866E-03
(PID.TID 0000.0001) %MON advcfl_uvel_max              =   0.0000000000000E+00
(PID.TID 0000.0001) %MON advcfl_vvel_max              =   0.0000000000000E+00
(PID.TID 0000.0001) %MON advcfl_wvel_max              =   0.0000000000000E+00
(PID.TID 0000.0001) %MON advcfl_W_hf_max              =   0.0000000000000E+00
(PID.TID 0000.0001) %MON pe_b_mean                    =   0.0000000000000E+00
(PID.TID 0000.0001) %MON ke_max                       =   0.0000000000000E+00
(PID.TID 0000.0001) %MON ke_mean                      =   0.0000000000000E+00
(PID.TID 0000.0001) %MON ke_vol                       =   1.3226782436723E+18
(PID.TID 0000.0001) %MON vort_r_min                   =   0.0000000000000E+00
(PID.TID 0000.0001) %MON vort_r_max                   =   0.0000000000000E+00
(PID.TID 0000.0001) %MON vort_a_mean                  =  -2.5205769728595E-05
(PID.TID 0000.0001) %MON vort_a_sd                    =   7.3403301351718E-05
(PID.TID 0000.0001) %MON vort_p_mean                  =  -3.1758669979758E-05
(PID.TID 0000.0001) %MON vort_p_sd                    =   1.3126616755304E-04
(PID.TID 0000.0001) %MON surfExpan_theta_mean         =   0.0000000000000E+00
(PID.TID 0000.0001) %MON surfExpan_salt_mean          =   0.0000000000000E+00
(PID.TID 0000.0001) // =======================================================
(PID.TID 0000.0001) // End MONITOR dynamic field statistics
(PID.TID 0000.0001) // =======================================================
S/R EXTERNAL_FIELDS_LOAD: Reading new data:   12    1         0  0.000000000000E+00
(PID.TID 0000.0001)  MDSREADFIELD: opening global file: trenberth_taux.bin
(PID.TID 0000.0001)  MDSREADFIELD: opening global file: trenberth_taux.bin
(PID.TID 0000.0001)  MDSREADFIELD: opening global file: trenberth_tauy.bin
(PID.TID 0000.0001)  MDSREADFIELD: opening global file: trenberth_tauy.bin
(PID.TID 0000.0001)  MDSREADFIELD: opening global file: ncep_qnet.bin
(PID.TID 0000.0001)  MDSREADFIELD: opening global file: ncep_qnet.bin
(PID.TID 0000.0001)  MDSREADFIELD: opening global file: lev_sst.bin
(PID.TID 0000.0001)  MDSREADFIELD: opening global file: lev_sst.bin
(PID.TID 0000.0001)  MDSREADFIELD: opening global file: lev_sss.bin
(PID.TID 0000.0001)  MDSREADFIELD: opening global file: lev_sss.bin
time,SST,SSS,fu,fv,Q,E-P,i0,i1,a,b =   0.0000E+00  5.3151E-02  3.4364E+01 -4.0500E-02 -6.3753E-02  2.6510E+02  0.0000E+00    12     1  5.0000E-01  5.0000E-01
time,fu0,fu1,fu =   0.0000E+00 -4.5368E-02 -3.5633E-02 -4.0500E-02  5.000000000000000E-01  5.000000000000000E-01
(PID.TID 0000.0001)  MDSREADFIELD: opening file: xx_tauu.0000000000.001.001.data
(PID.TID 0000.0001)  MDSREADFIELD: opening file: xx_tauv.0000000000.001.001.data
(PID.TID 0000.0001)  MDSREADFIELD: opening file: xx_sflux.0000000000.001.001.data
(PID.TID 0000.0001)  MDSREADFIELD: opening file: xx_hflux.0000000000.001.001.data
 cg2d: Sum(rhs),rhsMax =  -5.41233724504764E-16  2.53364304519873E+00
(PID.TID 0000.0001)                    cg2d_init_res =    6.22532207860745E+00
(PID.TID 0000.0001)                       cg2d_iters =    26
(PID.TID 0000.0001)                         cg2d_res =    5.02297532138383E-14
(PID.TID 0000.0001) // =======================================================
(PID.TID 0000.0001) // Begin MONITOR dynamic field statistics
(PID.TID 0000.0001) // =======================================================
(PID.TID 0000.0001) %MON time_tsnumber                =                     1
(PID.TID 0000.0001) %MON time_secondsf                =   4.3200000000000E+04
(PID.TID 0000.0001) %MON dynstat_eta_max              =   1.7856749921513E-01
(PID.TID 0000.0001) %MON dynstat_eta_min              =  -1.1521465430466E-01
(PID.TID 0000.0001) %MON dynstat_eta_mean             =  -1.1054020049161E-17
(PID.TID 0000.0001) %MON dynstat_eta_sd               =   2.6330834591319E-02
(PID.TID 0000.0001) %MON dynstat_eta_del2             =   1.1668316768338E-02
(PID.TID 0000.0001) %MON dynstat_uvel_max             =   8.3278858756599E-03
(PID.TID 0000.0001) %MON dynstat_uvel_min             =  -8.9104646414739E-03
(PID.TID 0000.0001) %MON dynstat_uvel_mean            =  -3.6106684594872E-04
(PID.TID 0000.0001) %MON dynstat_uvel_sd              =   1.2326309113921E-03
(PID.TID 0000.0001) %MON dynstat_uvel_del2            =   4.2133121773369E-04
(PID.TID 0000.0001) %MON dynstat_vvel_max             =   1.8795311463979E-02
(PID.TID 0000.0001) %MON dynstat_vvel_min             =  -1.1292773495360E-02
(PID.TID 0000.0001) %MON dynstat_vvel_mean            =   9.2368596198706E-04
(PID.TID 0000.0001) %MON dynstat_vvel_sd              =   3.4433687386698E-03
(PID.TID 0000.0001) %MON dynstat_vvel_del2            =   5.2656181871678E-04
(PID.TID 0000.0001) %MON dynstat_wvel_max             =   1.5979209663759E-04
(PID.TID 0000.0001) %MON dynstat_wvel_min             =  -1.0322817826396E-04
(PID.TID 0000.0001) %MON dynstat_wvel_mean            =   3.3604312293213E-22
(PID.TID 0000.0001) %MON dynstat_wvel_sd              =   1.6851361675662E-05
(PID.TID 0000.0001) %MON dynstat_wvel_del2            =   8.8304736248443E-06
(PID.TID 0000.0001) %MON dynstat_theta_max            =   2.9730794627082E+01
(PID.TID 0000.0001) %MON dynstat_theta_min            =  -1.9001889888012E+00
(PID.TID 0000.0001) %MON dynstat_theta_mean           =   3.6197399688629E+00
(PID.TID 0000.0001) %MON dynstat_theta_sd             =   4.4171810374752E+00
(PID.TID 0000.0001) %MON dynstat_theta_del2           =   1.5246882153338E-01
(PID.TID 0000.0001) %MON dynstat_salt_max             =   3.7470708458118E+01
(PID.TID 0000.0001) %MON dynstat_salt_min             =   2.9753874437748E+01
(PID.TID 0000.0001) %MON dynstat_salt_mean            =   3.4718006046542E+01
(PID.TID 0000.0001) %MON dynstat_salt_sd              =   2.9615530703912E-01
(PID.TID 0000.0001) %MON dynstat_salt_del2            =   2.6484236161343E-02
(PID.TID 0000.0001) %MON dynstat_sst_max              =   2.9730794627082E+01
(PID.TID 0000.0001) %MON dynstat_sst_min              =  -1.9001889888012E+00
(PID.TID 0000.0001) %MON dynstat_sst_mean             =   1.8486801852517E+01
(PID.TID 0000.0001) %MON dynstat_sst_sd               =   9.1764562284341E+00
(PID.TID 0000.0001) %MON dynstat_sst_del2             =   2.8426284477732E-01
(PID.TID 0000.0001) %MON dynstat_sss_max              =   3.7470708458118E+01
(PID.TID 0000.0001) %MON dynstat_sss_min              =   2.9753874437748E+01
(PID.TID 0000.0001) %MON dynstat_sss_mean             =   3.4849525597039E+01
(PID.TID 0000.0001) %MON dynstat_sss_sd               =   9.6290583349317E-01
(PID.TID 0000.0001) %MON dynstat_sss_del2             =   8.3944675586643E-02
(PID.TID 0000.0001) %MON extforcing_qnet_max          =   4.2589080810547E+02
(PID.TID 0000.0001) %MON extforcing_qnet_min          =  -1.8702698516846E+02
(PID.TID 0000.0001) %MON extforcing_qnet_mean         =  -1.6700205338390E+01
(PID.TID 0000.0001) %MON extforcing_qnet_sd           =   1.1285666794876E+02
(PID.TID 0000.0001) %MON extforcing_qnet_del2         =   9.4920800031777E+00
(PID.TID 0000.0001) %MON extforcing_qsw_max           =   0.0000000000000E+00
(PID.TID 0000.0001) %MON extforcing_qsw_min           =   0.0000000000000E+00
(PID.TID 0000.0001) %MON extforcing_qsw_mean          =   0.0000000000000E+00
(PID.TID 0000.0001) %MON extforcing_qsw_sd            =   0.0000000000000E+00
(PID.TID 0000.0001) %MON extforcing_qsw_del2          =   0.0000000000000E+00
(PID.TID 0000.0001) %MON extforcing_empmr_max         =   0.0000000000000E+00
(PID.TID 0000.0001) %MON extforcing_empmr_min         =   0.0000000000000E+00
(PID.TID 0000.0001) %MON extforcing_empmr_mean        =   0.0000000000000E+00
(PID.TID 0000.0001) %MON extforcing_empmr_sd          =   0.0000000000000E+00
(PID.TID 0000.0001) %MON extforcing_empmr_del2        =   0.0000000000000E+00
(PID.TID 0000.0001) %MON extforcing_fu_max            =   2.7488999068737E-01
(PID.TID 0000.0001) %MON extforcing_fu_min            =  -1.6014087945223E-01
(PID.TID 0000.0001) %MON extforcing_fu_mean           =   1.6117127468124E-02
(PID.TID 0000.0001) %MON extforcing_fu_sd             =   9.0153154829689E-02
(PID.TID 0000.0001) %MON extforcing_fu_del2           =   7.3708273804392E-03
(PID.TID 0000.0001) %MON extforcing_fv_max            =   2.0835298299789E-01
(PID.TID 0000.0001) %MON extforcing_fv_min            =  -1.8690676242113E-01
(PID.TID 0000.0001) %MON extforcing_fv_mean           =  -6.3653356424171E-03
(PID.TID 0000.0001) %MON extforcing_fv_sd             =   4.5157892194461E-02
(PID.TID 0000.0001) %MON extforcing_fv_del2           =   4.3354963669297E-03
(PID.TID 0000.0001) %MON advcfl_uvel_max              =   2.6512729685057E-03
(PID.TID 0000.0001) %MON advcfl_vvel_max              =   1.8258137884481E-03
(PID.TID 0000.0001) %MON advcfl_wvel_max              =   2.5713719886979E-01
(PID.TID 0000.0001) %MON advcfl_W_hf_max              =   2.6084575826616E-01
(PID.TID 0000.0001) %MON pe_b_mean                    =   8.8717735888783E-07
(PID.TID 0000.0001) %MON ke_max                       =   1.2389974061748E-04
(PID.TID 0000.0001) %MON ke_mean                      =   6.4555746458370E-06
(PID.TID 0000.0001) %MON ke_vol                       =   1.3226782436723E+18
(PID.TID 0000.0001) %MON vort_r_min                   =  -5.9901656470272E-08
(PID.TID 0000.0001) %MON vort_r_max                   =   6.7789443932714E-08
(PID.TID 0000.0001) %MON vort_a_mean                  =  -2.5205769395234E-05
(PID.TID 0000.0001) %MON vort_a_sd                    =   7.3403223082107E-05
(PID.TID 0000.0001) %MON vort_p_mean                  =  -3.1758669559732E-05
(PID.TID 0000.0001) %MON vort_p_sd                    =   1.3126608087588E-04
(PID.TID 0000.0001) %MON surfExpan_theta_mean         =   4.7001091306916E-05
(PID.TID 0000.0001) %MON surfExpan_salt_mean          =   3.5346110106989E-06
(PID.TID 0000.0001) // =======================================================
(PID.TID 0000.0001) // End MONITOR dynamic field statistics
(PID.TID 0000.0001) // =======================================================
time,SST,SSS,fu,fv,Q,E-P,i0,i1,a,b =   4.3200E+04  8.3327E-02  3.4375E+01 -4.0338E-02 -6.3536E-02  2.6512E+02  0.0000E+00    12     1  5.1667E-01  4.8333E-01
time,fu0,fu1,fu =   4.3200E+04 -4.5368E-02 -3.5633E-02 -4.0338E-02  5.166666666666667E-01  4.833333333333333E-01
 cg2d: Sum(rhs),rhsMax =   3.06976666308856E-14  5.05307478634997E+00
(PID.TID 0000.0001)                    cg2d_init_res =    3.38995596501162E+00
(PID.TID 0000.0001)                       cg2d_iters =    26
(PID.TID 0000.0001)                         cg2d_res =    3.27235823708755E-14
(PID.TID 0000.0001) // =======================================================
(PID.TID 0000.0001) // Begin MONITOR dynamic field statistics
(PID.TID 0000.0001) // =======================================================
(PID.TID 0000.0001) %MON time_tsnumber                =                     2
(PID.TID 0000.0001) %MON time_secondsf                =   8.6400000000000E+04
(PID.TID 0000.0001) %MON dynstat_eta_max              =   3.7996350299037E-01
(PID.TID 0000.0001) %MON dynstat_eta_min              =  -2.5476239191406E-01
(PID.TID 0000.0001) %MON dynstat_eta_mean             =  -2.8354407143203E-17
(PID.TID 0000.0001) %MON dynstat_eta_sd               =   6.0828556430697E-02
(PID.TID 0000.0001) %MON dynstat_eta_del2             =   2.2749559529879E-02
(PID.TID 0000.0001) %MON dynstat_uvel_max             =   1.9172487360011E-02
(PID.TID 0000.0001) %MON dynstat_uvel_min             =  -1.7250927260136E-02
(PID.TID 0000.0001) %MON dynstat_uvel_mean            =  -8.9861185098811E-04
(PID.TID 0000.0001) %MON dynstat_uvel_sd              =   2.1516972781841E-03
(PID.TID 0000.0001) %MON dynstat_uvel_del2            =   7.8802270036145E-04
(PID.TID 0000.0001) %MON dynstat_vvel_max             =   3.4255165243048E-02
(PID.TID 0000.0001) %MON dynstat_vvel_min             =  -1.8172003500733E-02
(PID.TID 0000.0001) %MON dynstat_vvel_mean            =   1.7999644648119E-03
(PID.TID 0000.0001) %MON dynstat_vvel_sd              =   6.3043443890535E-03
(PID.TID 0000.0001) %MON dynstat_vvel_del2            =   9.5266920554806E-04
(PID.TID 0000.0001) %MON dynstat_wvel_max             =   2.1016122705957E-04
(PID.TID 0000.0001) %MON dynstat_wvel_min             =  -1.4864155124061E-04
(PID.TID 0000.0001) %MON dynstat_wvel_mean            =   2.9807678132959E-22
(PID.TID 0000.0001) %MON dynstat_wvel_sd              =   2.4440287877027E-05
(PID.TID 0000.0001) %MON dynstat_wvel_del2            =   1.0164133747003E-05
(PID.TID 0000.0001) %MON dynstat_theta_max            =   2.9679780295031E+01
(PID.TID 0000.0001) %MON dynstat_theta_min            =  -1.9014311300133E+00
(PID.TID 0000.0001) %MON dynstat_theta_mean           =   3.6189252371104E+00
(PID.TID 0000.0001) %MON dynstat_theta_sd             =   4.4153742457242E+00
(PID.TID 0000.0001) %MON dynstat_theta_del2           =   1.5035500654288E-01
(PID.TID 0000.0001) %MON dynstat_salt_max             =   3.7465078064329E+01
(PID.TID 0000.0001) %MON dynstat_salt_min             =   2.9755981120951E+01
(PID.TID 0000.0001) %MON dynstat_salt_mean            =   3.4717942224508E+01
(PID.TID 0000.0001) %MON dynstat_salt_sd              =   2.9609248308341E-01
(PID.TID 0000.0001) %MON dynstat_salt_del2            =   2.6597218812047E-02
(PID.TID 0000.0001) %MON dynstat_sst_max              =   2.9679780295031E+01
(PID.TID 0000.0001) %MON dynstat_sst_min              =  -1.9001515484822E+00
(PID.TID 0000.0001) %MON dynstat_sst_mean             =   1.8490350346261E+01
(PID.TID 0000.0001) %MON dynstat_sst_sd               =   9.1699124348674E+00
(PID.TID 0000.0001) %MON dynstat_sst_del2             =   2.7823790281601E-01
(PID.TID 0000.0001) %MON dynstat_sss_max              =   3.7465078064329E+01
(PID.TID 0000.0001) %MON dynstat_sss_min              =   2.9755981120951E+01
(PID.TID 0000.0001) %MON dynstat_sss_mean             =   3.4849368653174E+01
(PID.TID 0000.0001) %MON dynstat_sss_sd               =   9.6309974789917E-01
(PID.TID 0000.0001) %MON dynstat_sss_del2             =   8.3752301699670E-02
(PID.TID 0000.0001) %MON extforcing_qnet_max          =   4.2641490173340E+02
(PID.TID 0000.0001) %MON extforcing_qnet_min          =  -1.8679340387980E+02
(PID.TID 0000.0001) %MON extforcing_qnet_mean         =  -1.6693949360479E+01
(PID.TID 0000.0001) %MON extforcing_qnet_sd           =   1.1274774925900E+02
(PID.TID 0000.0001) %MON extforcing_qnet_del2         =   9.4916969262675E+00
(PID.TID 0000.0001) %MON extforcing_qsw_max           =   0.0000000000000E+00
(PID.TID 0000.0001) %MON extforcing_qsw_min           =   0.0000000000000E+00
(PID.TID 0000.0001) %MON extforcing_qsw_mean          =   0.0000000000000E+00
(PID.TID 0000.0001) %MON extforcing_qsw_sd            =   0.0000000000000E+00
(PID.TID 0000.0001) %MON extforcing_qsw_del2          =   0.0000000000000E+00
(PID.TID 0000.0001) %MON extforcing_empmr_max         =   0.0000000000000E+00
(PID.TID 0000.0001) %MON extforcing_empmr_min         =   0.0000000000000E+00
(PID.TID 0000.0001) %MON extforcing_empmr_mean        =   0.0000000000000E+00
(PID.TID 0000.0001) %MON extforcing_empmr_sd          =   0.0000000000000E+00
(PID.TID 0000.0001) %MON extforcing_empmr_del2        =   0.0000000000000E+00
(PID.TID 0000.0001) %MON extforcing_fu_max            =   2.7446071654558E-01
(PID.TID 0000.0001) %MON extforcing_fu_min            =  -1.5920810426275E-01
(PID.TID 0000.0001) %MON extforcing_fu_mean           =   1.6113281057605E-02
(PID.TID 0000.0001) %MON extforcing_fu_sd             =   9.0144235663722E-02
(PID.TID 0000.0001) %MON extforcing_fu_del2           =   7.3673706182092E-03
(PID.TID 0000.0001) %MON extforcing_fv_max            =   2.0858977933725E-01
(PID.TID 0000.0001) %MON extforcing_fv_min            =  -1.8661443367600E-01
(PID.TID 0000.0001) %MON extforcing_fv_mean           =  -6.3284543789868E-03
(PID.TID 0000.0001) %MON extforcing_fv_sd             =   4.5207594835594E-02
(PID.TID 0000.0001) %MON extforcing_fv_del2           =   4.3342138082014E-03
(PID.TID 0000.0001) %MON advcfl_uvel_max              =   4.7332848968983E-03
(PID.TID 0000.0001) %MON advcfl_vvel_max              =   3.3276146099622E-03
(PID.TID 0000.0001) %MON advcfl_wvel_max              =   2.9001024543634E-01
(PID.TID 0000.0001) %MON advcfl_W_hf_max              =   3.0080470789050E-01
(PID.TID 0000.0001) %MON pe_b_mean                    =   4.7347409236152E-06
(PID.TID 0000.0001) %MON ke_max                       =   4.1680256782054E-04
(PID.TID 0000.0001) %MON ke_mean                      =   2.1767934733278E-05
(PID.TID 0000.0001) %MON ke_vol                       =   1.3226782436723E+18
(PID.TID 0000.0001) %MON vort_r_min                   =  -1.0607129965654E-07
(PID.TID 0000.0001) %MON vort_r_max                   =   1.2898474317175E-07
(PID.TID 0000.0001) %MON vort_a_mean                  =  -2.5205769316135E-05
(PID.TID 0000.0001) %MON vort_a_sd                    =   7.3403112758897E-05
(PID.TID 0000.0001) %MON vort_p_mean                  =  -3.1758669460068E-05
(PID.TID 0000.0001) %MON vort_p_sd                    =   1.3126588789725E-04
(PID.TID 0000.0001) %MON surfExpan_theta_mean         =   8.4675862176263E-05
(PID.TID 0000.0001) %MON surfExpan_salt_mean          =   6.7417410105732E-06
(PID.TID 0000.0001) // =======================================================
(PID.TID 0000.0001) // End MONITOR dynamic field statistics
(PID.TID 0000.0001) // =======================================================
time,SST,SSS,fu,fv,Q,E-P,i0,i1,a,b =   8.6400E+04  1.1350E-01  3.4387E+01 -4.0176E-02 -6.3320E-02  2.6514E+02  0.0000E+00    12     1  5.3333E-01  4.6667E-01
time,fu0,fu1,fu =   8.6400E+04 -4.5368E-02 -3.5633E-02 -4.0176E-02  5.333333333333333E-01  4.666666666666667E-01
 cg2d: Sum(rhs),rhsMax =   5.78981307342019E-14  6.32564766002464E+00
(PID.TID 0000.0001)                    cg2d_init_res =    2.20333219123738E+00
(PID.TID 0000.0001)                       cg2d_iters =    26
(PID.TID 0000.0001)                         cg2d_res =    2.89408109285495E-14
(PID.TID 0000.0001) // =======================================================
(PID.TID 0000.0001) // Begin MONITOR dynamic field statistics
(PID.TID 0000.0001) // =======================================================
(PID.TID 0000.0001) %MON time_tsnumber                =                     3
(PID.TID 0000.0001) %MON time_secondsf                =   1.2960000000000E+05
(PID.TID 0000.0001) %MON dynstat_eta_max              =   5.1567421487633E-01
(PID.TID 0000.0001) %MON dynstat_eta_min              =  -3.8641400413897E-01
(PID.TID 0000.0001) %MON dynstat_eta_mean             =  -4.7964928550250E-17
(PID.TID 0000.0001) %MON dynstat_eta_sd               =   9.3638308441760E-02
(PID.TID 0000.0001) %MON dynstat_eta_del2             =   2.8112641388663E-02
(PID.TID 0000.0001) %MON dynstat_uvel_max             =   3.1251802107500E-02
(PID.TID 0000.0001) %MON dynstat_uvel_min             =  -3.0303578460306E-02
(PID.TID 0000.0001) %MON dynstat_uvel_mean            =  -1.5822545422379E-03
(PID.TID 0000.0001) %MON dynstat_uvel_sd              =   3.0666235057147E-03
(PID.TID 0000.0001) %MON dynstat_uvel_del2            =   1.1502573187909E-03
(PID.TID 0000.0001) %MON dynstat_vvel_max             =   4.5731664243623E-02
(PID.TID 0000.0001) %MON dynstat_vvel_min             =  -2.4647705919589E-02
(PID.TID 0000.0001) %MON dynstat_vvel_mean            =   2.6059157008349E-03
(PID.TID 0000.0001) %MON dynstat_vvel_sd              =   8.6513512279360E-03
(PID.TID 0000.0001) %MON dynstat_vvel_del2            =   1.3518196885651E-03
(PID.TID 0000.0001) %MON dynstat_wvel_max             =   1.9801391382863E-04
(PID.TID 0000.0001) %MON dynstat_wvel_min             =  -1.6855289575672E-04
(PID.TID 0000.0001) %MON dynstat_wvel_mean            =   7.5203289057391E-22
(PID.TID 0000.0001) %MON dynstat_wvel_sd              =   2.7017828539068E-05
(PID.TID 0000.0001) %MON dynstat_wvel_del2            =   8.5236904766840E-06
(PID.TID 0000.0001) %MON dynstat_theta_max            =   2.9643443830217E+01
(PID.TID 0000.0001) %MON dynstat_theta_min            =  -1.9087590263347E+00
(PID.TID 0000.0001) %MON dynstat_theta_mean           =   3.6177489057878E+00
(PID.TID 0000.0001) %MON dynstat_theta_sd             =   4.4129428046949E+00
(PID.TID 0000.0001) %MON dynstat_theta_del2           =   1.4835708612631E-01
(PID.TID 0000.0001) %MON dynstat_salt_max             =   3.7460691307859E+01
(PID.TID 0000.0001) %MON dynstat_salt_min             =   2.9758546957848E+01
(PID.TID 0000.0001) %MON dynstat_salt_mean            =   3.4717844476629E+01
(PID.TID 0000.0001) %MON dynstat_salt_sd              =   2.9611374616442E-01
(PID.TID 0000.0001) %MON dynstat_salt_del2            =   2.6535141566537E-02
(PID.TID 0000.0001) %MON dynstat_sst_max              =   2.9643443830217E+01
(PID.TID 0000.0001) %MON dynstat_sst_min              =  -1.9007429663071E+00
(PID.TID 0000.0001) %MON dynstat_sst_mean             =   1.8492874860724E+01
(PID.TID 0000.0001) %MON dynstat_sst_sd               =   9.1610329122140E+00
(PID.TID 0000.0001) %MON dynstat_sst_del2             =   2.7460697489815E-01
(PID.TID 0000.0001) %MON dynstat_sss_max              =   3.7460691307859E+01
(PID.TID 0000.0001) %MON dynstat_sss_min              =   2.9758546957848E+01
(PID.TID 0000.0001) %MON dynstat_sss_mean             =   3.4849198462145E+01
(PID.TID 0000.0001) %MON dynstat_sss_sd               =   9.6332283488606E-01
(PID.TID 0000.0001) %MON dynstat_sss_del2             =   8.3546296309290E-02
(PID.TID 0000.0001) %MON extforcing_qnet_max          =   4.2693899536133E+02
(PID.TID 0000.0001) %MON extforcing_qnet_min          =  -1.8655982259115E+02
(PID.TID 0000.0001) %MON extforcing_qnet_mean         =  -1.6687693382567E+01
(PID.TID 0000.0001) %MON extforcing_qnet_sd           =   1.1263946608433E+02
(PID.TID 0000.0001) %MON extforcing_qnet_del2         =   9.4914987500819E+00
(PID.TID 0000.0001) %MON extforcing_qsw_max           =   0.0000000000000E+00
(PID.TID 0000.0001) %MON extforcing_qsw_min           =   0.0000000000000E+00
(PID.TID 0000.0001) %MON extforcing_qsw_mean          =   0.0000000000000E+00
(PID.TID 0000.0001) %MON extforcing_qsw_sd            =   0.0000000000000E+00
(PID.TID 0000.0001) %MON extforcing_qsw_del2          =   0.0000000000000E+00
(PID.TID 0000.0001) %MON extforcing_empmr_max         =   0.0000000000000E+00
(PID.TID 0000.0001) %MON extforcing_empmr_min         =   0.0000000000000E+00
(PID.TID 0000.0001) %MON extforcing_empmr_mean        =   0.0000000000000E+00
(PID.TID 0000.0001) %MON extforcing_empmr_sd          =   0.0000000000000E+00
(PID.TID 0000.0001) %MON extforcing_empmr_del2        =   0.0000000000000E+00
(PID.TID 0000.0001) %MON extforcing_fu_max            =   2.7403144240379E-01
(PID.TID 0000.0001) %MON extforcing_fu_min            =  -1.5949268937111E-01
(PID.TID 0000.0001) %MON extforcing_fu_mean           =   1.6109434647086E-02
(PID.TID 0000.0001) %MON extforcing_fu_sd             =   9.0138031840955E-02
(PID.TID 0000.0001) %MON extforcing_fu_del2           =   7.3647677160333E-03
(PID.TID 0000.0001) %MON extforcing_fv_max            =   2.0882657567660E-01
(PID.TID 0000.0001) %MON extforcing_fv_min            =  -1.8632210493088E-01
(PID.TID 0000.0001) %MON extforcing_fv_mean           =  -6.2915731155564E-03
(PID.TID 0000.0001) %MON extforcing_fv_sd             =   4.5261152700224E-02
(PID.TID 0000.0001) %MON extforcing_fv_del2           =   4.3343836405753E-03
(PID.TID 0000.0001) %MON advcfl_uvel_max              =   5.9878839558477E-03
(PID.TID 0000.0001) %MON advcfl_vvel_max              =   4.4424644574104E-03
(PID.TID 0000.0001) %MON advcfl_wvel_max              =   2.1241151912841E-01
(PID.TID 0000.0001) %MON advcfl_W_hf_max              =   2.1701525957257E-01
(PID.TID 0000.0001) %MON pe_b_mean                    =   1.1219882775492E-05
(PID.TID 0000.0001) %MON ke_max                       =   8.0775798303700E-04
(PID.TID 0000.0001) %MON ke_mean                      =   4.2060134849241E-05
(PID.TID 0000.0001) %MON ke_vol                       =   1.3226782436723E+18
(PID.TID 0000.0001) %MON vort_r_min                   =  -1.5859369829061E-07
(PID.TID 0000.0001) %MON vort_r_max                   =   1.8493361934355E-07
(PID.TID 0000.0001) %MON vort_a_mean                  =  -2.5205769323954E-05
(PID.TID 0000.0001) %MON vort_a_sd                    =   7.3402977534551E-05
(PID.TID 0000.0001) %MON vort_p_mean                  =  -3.1758669469920E-05
(PID.TID 0000.0001) %MON vort_p_sd                    =   1.3126560816854E-04
(PID.TID 0000.0001) %MON surfExpan_theta_mean         =   1.1378565978639E-04
(PID.TID 0000.0001) %MON surfExpan_salt_mean          =   9.3763520510954E-06
(PID.TID 0000.0001) // =======================================================
(PID.TID 0000.0001) // End MONITOR dynamic field statistics
(PID.TID 0000.0001) // =======================================================
time,SST,SSS,fu,fv,Q,E-P,i0,i1,a,b =   1.2960E+05  1.4368E-01  3.4399E+01 -4.0014E-02 -6.3103E-02  2.6516E+02  0.0000E+00    12     1  5.5000E-01  4.5000E-01
time,fu0,fu1,fu =   1.2960E+05 -4.5368E-02 -3.5633E-02 -4.0014E-02  5.500000000000000E-01  4.500000000000000E-01
 cg2d: Sum(rhs),rhsMax =   7.97903410010292E-14  6.76202107413720E+00
(PID.TID 0000.0001)                    cg2d_init_res =    1.89610535331667E+00
(PID.TID 0000.0001)                       cg2d_iters =    26
(PID.TID 0000.0001)                         cg2d_res =    2.59980579268873E-14
(PID.TID 0000.0001) // =======================================================
(PID.TID 0000.0001) // Begin MONITOR dynamic field statistics
(PID.TID 0000.0001) // =======================================================
(PID.TID 0000.0001) %MON time_tsnumber                =                     4
(PID.TID 0000.0001) %MON time_secondsf                =   1.7280000000000E+05
(PID.TID 0000.0001) %MON dynstat_eta_max              =   5.9329401840226E-01
(PID.TID 0000.0001) %MON dynstat_eta_min              =  -5.0410858508887E-01
(PID.TID 0000.0001) %MON dynstat_eta_mean             =  -3.6948882857393E-17
(PID.TID 0000.0001) %MON dynstat_eta_sd               =   1.2393473725462E-01
(PID.TID 0000.0001) %MON dynstat_eta_del2             =   2.9314799082524E-02
(PID.TID 0000.0001) %MON dynstat_uvel_max             =   4.3686264854980E-02
(PID.TID 0000.0001) %MON dynstat_uvel_min             =  -4.2651280854842E-02
(PID.TID 0000.0001) %MON dynstat_uvel_mean            =  -2.3837134804718E-03
(PID.TID 0000.0001) %MON dynstat_uvel_sd              =   4.1263837735596E-03
(PID.TID 0000.0001) %MON dynstat_uvel_del2            =   1.4978965948782E-03
(PID.TID 0000.0001) %MON dynstat_vvel_max             =   5.3451573153757E-02
(PID.TID 0000.0001) %MON dynstat_vvel_min             =  -3.6381530535885E-02
(PID.TID 0000.0001) %MON dynstat_vvel_mean            =   3.3227657252908E-03
(PID.TID 0000.0001) %MON dynstat_vvel_sd              =   1.0605846918510E-02
(PID.TID 0000.0001) %MON dynstat_vvel_del2            =   1.7518241340922E-03
(PID.TID 0000.0001) %MON dynstat_wvel_max             =   2.0352788812421E-04
(PID.TID 0000.0001) %MON dynstat_wvel_min             =  -2.0405782245473E-04
(PID.TID 0000.0001) %MON dynstat_wvel_mean            =   1.2999156990252E-21
(PID.TID 0000.0001) %MON dynstat_wvel_sd              =   2.8759593638137E-05
(PID.TID 0000.0001) %MON dynstat_wvel_del2            =   8.1000792932278E-06
(PID.TID 0000.0001) %MON dynstat_theta_max            =   2.9648078951546E+01
(PID.TID 0000.0001) %MON dynstat_theta_min            =  -1.9200766213122E+00
(PID.TID 0000.0001) %MON dynstat_theta_mean           =   3.6163026326967E+00
(PID.TID 0000.0001) %MON dynstat_theta_sd             =   4.4099799505495E+00
(PID.TID 0000.0001) %MON dynstat_theta_del2           =   1.4738375512487E-01
(PID.TID 0000.0001) %MON dynstat_salt_max             =   3.7456760004436E+01
(PID.TID 0000.0001) %MON dynstat_salt_min             =   2.9761450271828E+01
(PID.TID 0000.0001) %MON dynstat_salt_mean            =   3.4717720918221E+01
(PID.TID 0000.0001) %MON dynstat_salt_sd              =   2.9612736920889E-01
(PID.TID 0000.0001) %MON dynstat_salt_del2            =   2.6454243658757E-02
(PID.TID 0000.0001) %MON dynstat_sst_max              =   2.9648078951546E+01
(PID.TID 0000.0001) %MON dynstat_sst_min              =  -1.9010928978237E+00
(PID.TID 0000.0001) %MON dynstat_sst_mean             =   1.8494258240640E+01
(PID.TID 0000.0001) %MON dynstat_sst_sd               =   9.1491873469708E+00
(PID.TID 0000.0001) %MON dynstat_sst_del2             =   2.7344049031975E-01
(PID.TID 0000.0001) %MON dynstat_sss_max              =   3.7456760004436E+01
(PID.TID 0000.0001) %MON dynstat_sss_min              =   2.9761450271828E+01
(PID.TID 0000.0001) %MON dynstat_sss_mean             =   3.4849073848812E+01
(PID.TID 0000.0001) %MON dynstat_sss_sd               =   9.6368634492276E-01
(PID.TID 0000.0001) %MON dynstat_sss_del2             =   8.3510361489523E-02
(PID.TID 0000.0001) %MON extforcing_qnet_max          =   4.2746308898926E+02
(PID.TID 0000.0001) %MON extforcing_qnet_min          =  -1.8632624130249E+02
(PID.TID 0000.0001) %MON extforcing_qnet_mean         =  -1.6681437404656E+01
(PID.TID 0000.0001) %MON extforcing_qnet_sd           =   1.1253182025933E+02
(PID.TID 0000.0001) %MON extforcing_qnet_del2         =   9.4918268925661E+00
(PID.TID 0000.0001) %MON extforcing_qsw_max           =   0.0000000000000E+00
(PID.TID 0000.0001) %MON extforcing_qsw_min           =   0.0000000000000E+00
(PID.TID 0000.0001) %MON extforcing_qsw_mean          =   0.0000000000000E+00
(PID.TID 0000.0001) %MON extforcing_qsw_sd            =   0.0000000000000E+00
(PID.TID 0000.0001) %MON extforcing_qsw_del2          =   0.0000000000000E+00
(PID.TID 0000.0001) %MON extforcing_empmr_max         =   0.0000000000000E+00
(PID.TID 0000.0001) %MON extforcing_empmr_min         =   0.0000000000000E+00
(PID.TID 0000.0001) %MON extforcing_empmr_mean        =   0.0000000000000E+00
(PID.TID 0000.0001) %MON extforcing_empmr_sd          =   0.0000000000000E+00
(PID.TID 0000.0001) %MON extforcing_empmr_del2        =   0.0000000000000E+00
(PID.TID 0000.0001) %MON extforcing_fu_max            =   2.7360216826200E-01
(PID.TID 0000.0001) %MON extforcing_fu_min            =  -1.5989939942956E-01
(PID.TID 0000.0001) %MON extforcing_fu_mean           =   1.6105588236568E-02
(PID.TID 0000.0001) %MON extforcing_fu_sd             =   9.0134543922067E-02
(PID.TID 0000.0001) %MON extforcing_fu_del2           =   7.3632794450082E-03
(PID.TID 0000.0001) %MON extforcing_fv_max            =   2.0906337201595E-01
(PID.TID 0000.0001) %MON extforcing_fv_min            =  -1.8602977618575E-01
(PID.TID 0000.0001) %MON extforcing_fv_mean           =  -6.2546918521259E-03
(PID.TID 0000.0001) %MON extforcing_fv_sd             =   4.5318552119942E-02
(PID.TID 0000.0001) %MON extforcing_fv_del2           =   4.3358782801361E-03
(PID.TID 0000.0001) %MON advcfl_uvel_max              =   9.2233713664203E-03
(PID.TID 0000.0001) %MON advcfl_vvel_max              =   5.1923917018032E-03
(PID.TID 0000.0001) %MON advcfl_wvel_max              =   2.3975278708235E-01
(PID.TID 0000.0001) %MON advcfl_W_hf_max              =   2.4014061991247E-01
(PID.TID 0000.0001) %MON pe_b_mean                    =   1.9654739898845E-05
(PID.TID 0000.0001) %MON ke_max                       =   1.2530860217122E-03
(PID.TID 0000.0001) %MON ke_mean                      =   6.5772783501974E-05
(PID.TID 0000.0001) %MON ke_vol                       =   1.3226782436723E+18
(PID.TID 0000.0001) %MON vort_r_min                   =  -2.0762258865159E-07
(PID.TID 0000.0001) %MON vort_r_max                   =   2.3456146056448E-07
(PID.TID 0000.0001) %MON vort_a_mean                  =  -2.5205769320379E-05
(PID.TID 0000.0001) %MON vort_a_sd                    =   7.3402823138298E-05
(PID.TID 0000.0001) %MON vort_p_mean                  =  -3.1758669465416E-05
(PID.TID 0000.0001) %MON vort_p_sd                    =   1.3126523994543E-04
(PID.TID 0000.0001) %MON surfExpan_theta_mean         =   1.3601368133103E-04
(PID.TID 0000.0001) %MON surfExpan_salt_mean          =   1.1328964092124E-05
(PID.TID 0000.0001) // =======================================================
(PID.TID 0000.0001) // End MONITOR dynamic field statistics
(PID.TID 0000.0001) // =======================================================
time,SST,SSS,fu,fv,Q,E-P,i0,i1,a,b =   1.7280E+05  1.7385E-01  3.4410E+01 -3.9851E-02 -6.2886E-02  2.6519E+02  0.0000E+00    12     1  5.6667E-01  4.3333E-01
time,fu0,fu1,fu =   1.7280E+05 -4.5368E-02 -3.5633E-02 -3.9851E-02  5.666666666666667E-01  4.333333333333333E-01
 cg2d: Sum(rhs),rhsMax =   3.17176840347599E-14  6.91128535917368E+00
(PID.TID 0000.0001)                    cg2d_init_res =    1.79448477136703E+00
(PID.TID 0000.0001)                       cg2d_iters =    26
(PID.TID 0000.0001)                         cg2d_res =    2.69137342029013E-14
(PID.TID 0000.0001) // =======================================================
(PID.TID 0000.0001) // Begin MONITOR dynamic field statistics
(PID.TID 0000.0001) // =======================================================
(PID.TID 0000.0001) %MON time_tsnumber                =                     5
(PID.TID 0000.0001) %MON time_secondsf                =   2.1600000000000E+05
(PID.TID 0000.0001) %MON dynstat_eta_max              =   6.3900497327894E-01
(PID.TID 0000.0001) %MON dynstat_eta_min              =  -5.8447238866657E-01
(PID.TID 0000.0001) %MON dynstat_eta_mean             =  -4.0199974182583E-17
(PID.TID 0000.0001) %MON dynstat_eta_sd               =   1.5275880496256E-01
(PID.TID 0000.0001) %MON dynstat_eta_del2             =   2.8806388888733E-02
(PID.TID 0000.0001) %MON dynstat_uvel_max             =   5.5998831652931E-02
(PID.TID 0000.0001) %MON dynstat_uvel_min             =  -5.2981187041669E-02
(PID.TID 0000.0001) %MON dynstat_uvel_mean            =  -3.2726928320784E-03
(PID.TID 0000.0001) %MON dynstat_uvel_sd              =   5.3068958819592E-03
(PID.TID 0000.0001) %MON dynstat_uvel_del2            =   1.8095342865703E-03
(PID.TID 0000.0001) %MON dynstat_vvel_max             =   5.8202865558255E-02
(PID.TID 0000.0001) %MON dynstat_vvel_min             =  -4.7560588531531E-02
(PID.TID 0000.0001) %MON dynstat_vvel_mean            =   3.9344605058621E-03
(PID.TID 0000.0001) %MON dynstat_vvel_sd              =   1.2202469276946E-02
(PID.TID 0000.0001) %MON dynstat_vvel_del2            =   2.1145113735756E-03
(PID.TID 0000.0001) %MON dynstat_wvel_max             =   2.3127680058951E-04
(PID.TID 0000.0001) %MON dynstat_wvel_min             =  -2.3634529546465E-04
(PID.TID 0000.0001) %MON dynstat_wvel_mean            =  -3.8607428597127E-22
(PID.TID 0000.0001) %MON dynstat_wvel_sd              =   3.0514007268642E-05
(PID.TID 0000.0001) %MON dynstat_wvel_del2            =   8.8412038583615E-06
(PID.TID 0000.0001) %MON dynstat_theta_max            =   2.9678087384124E+01
(PID.TID 0000.0001) %MON dynstat_theta_min            =  -1.9398278089673E+00
(PID.TID 0000.0001) %MON dynstat_theta_mean           =   3.6146527251779E+00
(PID.TID 0000.0001) %MON dynstat_theta_sd             =   4.4065975562619E+00
(PID.TID 0000.0001) %MON dynstat_theta_del2           =   1.4687513764225E-01
(PID.TID 0000.0001) %MON dynstat_salt_max             =   3.7452672556853E+01
(PID.TID 0000.0001) %MON dynstat_salt_min             =   2.9764553863632E+01
(PID.TID 0000.0001) %MON dynstat_salt_mean            =   3.4717579972828E+01
(PID.TID 0000.0001) %MON dynstat_salt_sd              =   2.9615249739707E-01
(PID.TID 0000.0001) %MON dynstat_salt_del2            =   2.6392005734653E-02
(PID.TID 0000.0001) %MON dynstat_sst_max              =   2.9678087384124E+01
(PID.TID 0000.0001) %MON dynstat_sst_min              =  -1.9012852458231E+00
(PID.TID 0000.0001) %MON dynstat_sst_mean             =   1.8493691416683E+01
(PID.TID 0000.0001) %MON dynstat_sst_sd               =   9.1363653299968E+00
(PID.TID 0000.0001) %MON dynstat_sst_del2             =   2.7272357516248E-01
(PID.TID 0000.0001) %MON dynstat_sss_max              =   3.7452672556853E+01
(PID.TID 0000.0001) %MON dynstat_sss_min              =   2.9764553863632E+01
(PID.TID 0000.0001) %MON dynstat_sss_mean             =   3.4848802090123E+01
(PID.TID 0000.0001) %MON dynstat_sss_sd               =   9.6414789993534E-01
(PID.TID 0000.0001) %MON dynstat_sss_del2             =   8.3411214141471E-02
(PID.TID 0000.0001) %MON extforcing_qnet_max          =   4.2798718261719E+02
(PID.TID 0000.0001) %MON extforcing_qnet_min          =  -1.8609266001383E+02
(PID.TID 0000.0001) %MON extforcing_qnet_mean         =  -1.6675181426744E+01
(PID.TID 0000.0001) %MON extforcing_qnet_sd           =   1.1242481361476E+02
(PID.TID 0000.0001) %MON extforcing_qnet_del2         =   9.4925698128427E+00
(PID.TID 0000.0001) %MON extforcing_qsw_max           =   0.0000000000000E+00
(PID.TID 0000.0001) %MON extforcing_qsw_min           =   0.0000000000000E+00
(PID.TID 0000.0001) %MON extforcing_qsw_mean          =   0.0000000000000E+00
(PID.TID 0000.0001) %MON extforcing_qsw_sd            =   0.0000000000000E+00
(PID.TID 0000.0001) %MON extforcing_qsw_del2          =   0.0000000000000E+00
(PID.TID 0000.0001) %MON extforcing_empmr_max         =   0.0000000000000E+00
(PID.TID 0000.0001) %MON extforcing_empmr_min         =   0.0000000000000E+00
(PID.TID 0000.0001) %MON extforcing_empmr_mean        =   0.0000000000000E+00
(PID.TID 0000.0001) %MON extforcing_empmr_sd          =   0.0000000000000E+00
(PID.TID 0000.0001) %MON extforcing_empmr_del2        =   0.0000000000000E+00
(PID.TID 0000.0001) %MON extforcing_fu_max            =   2.7317289412022E-01
(PID.TID 0000.0001) %MON extforcing_fu_min            =  -1.6030610948801E-01
(PID.TID 0000.0001) %MON extforcing_fu_mean           =   1.6101741826049E-02
(PID.TID 0000.0001) %MON extforcing_fu_sd             =   9.0133772222350E-02
(PID.TID 0000.0001) %MON extforcing_fu_del2           =   7.3624077517240E-03
(PID.TID 0000.0001) %MON extforcing_fv_max            =   2.0930016835531E-01
(PID.TID 0000.0001) %MON extforcing_fv_min            =  -1.8573744744062E-01
(PID.TID 0000.0001) %MON extforcing_fv_mean           =  -6.2178105886955E-03
(PID.TID 0000.0001) %MON extforcing_fv_sd             =   4.5379778517573E-02
(PID.TID 0000.0001) %MON extforcing_fv_del2           =   4.3389629098033E-03
(PID.TID 0000.0001) %MON advcfl_uvel_max              =   1.1918066116806E-02
(PID.TID 0000.0001) %MON advcfl_vvel_max              =   5.6539416581158E-03
(PID.TID 0000.0001) %MON advcfl_wvel_max              =   2.4864470743807E-01
(PID.TID 0000.0001) %MON advcfl_W_hf_max              =   2.5255153606625E-01
(PID.TID 0000.0001) %MON pe_b_mean                    =   2.9860268229590E-05
(PID.TID 0000.0001) %MON ke_max                       =   1.7534145000100E-03
(PID.TID 0000.0001) %MON ke_mean                      =   9.1458387656892E-05
(PID.TID 0000.0001) %MON ke_vol                       =   1.3226782436723E+18
(PID.TID 0000.0001) %MON vort_r_min                   =  -2.5047701280380E-07
(PID.TID 0000.0001) %MON vort_r_max                   =   2.7640260959869E-07
(PID.TID 0000.0001) %MON vort_a_mean                  =  -2.5205769312510E-05
(PID.TID 0000.0001) %MON vort_a_sd                    =   7.3402654508706E-05
(PID.TID 0000.0001) %MON vort_p_mean                  =  -3.1758669455500E-05
(PID.TID 0000.0001) %MON vort_p_sd                    =   1.3126478929784E-04
(PID.TID 0000.0001) %MON surfExpan_theta_mean         =   1.5219067167031E-04
(PID.TID 0000.0001) %MON surfExpan_salt_mean          =   1.2646149033348E-05
(PID.TID 0000.0001) // =======================================================
(PID.TID 0000.0001) // End MONITOR dynamic field statistics
(PID.TID 0000.0001) // =======================================================
time,SST,SSS,fu,fv,Q,E-P,i0,i1,a,b =   2.1600E+05  2.0403E-01  3.4422E+01 -3.9689E-02 -6.2670E-02  2.6521E+02  0.0000E+00    12     1  5.8333E-01  4.1667E-01
time,fu0,fu1,fu =   2.1600E+05 -4.5368E-02 -3.5633E-02 -3.9689E-02  5.833333333333334E-01  4.166666666666666E-01
 cg2d: Sum(rhs),rhsMax =   9.49145276263330E-14  6.96038704691243E+00
(PID.TID 0000.0001)                    cg2d_init_res =    1.72278079808069E+00
(PID.TID 0000.0001)                       cg2d_iters =    26
(PID.TID 0000.0001)                         cg2d_res =    2.75684794760257E-14
(PID.TID 0000.0001) // =======================================================
(PID.TID 0000.0001) // Begin MONITOR dynamic field statistics
(PID.TID 0000.0001) // =======================================================
(PID.TID 0000.0001) %MON time_tsnumber                =                     6
(PID.TID 0000.0001) %MON time_secondsf                =   2.5920000000000E+05
(PID.TID 0000.0001) %MON dynstat_eta_max              =   7.2958995168715E-01
(PID.TID 0000.0001) %MON dynstat_eta_min              =  -6.4973675777112E-01
(PID.TID 0000.0001) %MON dynstat_eta_mean             =   4.3000016384855E-18
(PID.TID 0000.0001) %MON dynstat_eta_sd               =   1.8064965151292E-01
(PID.TID 0000.0001) %MON dynstat_eta_del2             =   2.7904398248646E-02
(PID.TID 0000.0001) %MON dynstat_uvel_max             =   6.7882389544726E-02
(PID.TID 0000.0001) %MON dynstat_uvel_min             =  -6.1365546380992E-02
(PID.TID 0000.0001) %MON dynstat_uvel_mean            =  -4.2172618460094E-03
(PID.TID 0000.0001) %MON dynstat_uvel_sd              =   6.5689949976709E-03
(PID.TID 0000.0001) %MON dynstat_uvel_del2            =   2.0901329056647E-03
(PID.TID 0000.0001) %MON dynstat_vvel_max             =   6.7670233653228E-02
(PID.TID 0000.0001) %MON dynstat_vvel_min             =  -5.8052700957632E-02
(PID.TID 0000.0001) %MON dynstat_vvel_mean            =   4.4282920371354E-03
(PID.TID 0000.0001) %MON dynstat_vvel_sd              =   1.3457802505982E-02
(PID.TID 0000.0001) %MON dynstat_vvel_del2            =   2.4300142873441E-03
(PID.TID 0000.0001) %MON dynstat_wvel_max             =   2.5362560927769E-04
(PID.TID 0000.0001) %MON dynstat_wvel_min             =  -2.6313730497213E-04
(PID.TID 0000.0001) %MON dynstat_wvel_mean            =  -1.1227853120592E-21
(PID.TID 0000.0001) %MON dynstat_wvel_sd              =   3.2290257412594E-05
(PID.TID 0000.0001) %MON dynstat_wvel_del2            =   9.9924481160813E-06
(PID.TID 0000.0001) %MON dynstat_theta_max            =   2.9706943550884E+01
(PID.TID 0000.0001) %MON dynstat_theta_min            =  -1.9677341438411E+00
(PID.TID 0000.0001) %MON dynstat_theta_mean           =   3.6128620255764E+00
(PID.TID 0000.0001) %MON dynstat_theta_sd             =   4.4028698575273E+00
(PID.TID 0000.0001) %MON dynstat_theta_del2           =   1.4641821425233E-01
(PID.TID 0000.0001) %MON dynstat_salt_max             =   3.7448393575785E+01
(PID.TID 0000.0001) %MON dynstat_salt_min             =   2.9767719001250E+01
(PID.TID 0000.0001) %MON dynstat_salt_mean            =   3.4717428496346E+01
(PID.TID 0000.0001) %MON dynstat_salt_sd              =   2.9617267310651E-01
(PID.TID 0000.0001) %MON dynstat_salt_del2            =   2.6334996881375E-02
(PID.TID 0000.0001) %MON dynstat_sst_max              =   2.9706943550884E+01
(PID.TID 0000.0001) %MON dynstat_sst_min              =  -1.9013267779816E+00
(PID.TID 0000.0001) %MON dynstat_sst_mean             =   1.8492112275697E+01
(PID.TID 0000.0001) %MON dynstat_sst_sd               =   9.1222318751972E+00
(PID.TID 0000.0001) %MON dynstat_sst_del2             =   2.7256804890753E-01
(PID.TID 0000.0001) %MON dynstat_sss_max              =   3.7448393575785E+01
(PID.TID 0000.0001) %MON dynstat_sss_min              =   2.9767719001250E+01
(PID.TID 0000.0001) %MON dynstat_sss_mean             =   3.4848440222999E+01
(PID.TID 0000.0001) %MON dynstat_sss_sd               =   9.6465726177327E-01
(PID.TID 0000.0001) %MON dynstat_sss_del2             =   8.3370576796261E-02
(PID.TID 0000.0001) %MON extforcing_qnet_max          =   4.2851127624512E+02
(PID.TID 0000.0001) %MON extforcing_qnet_min          =  -1.8585907872518E+02
(PID.TID 0000.0001) %MON extforcing_qnet_mean         =  -1.6668925448832E+01
(PID.TID 0000.0001) %MON extforcing_qnet_sd           =   1.1231844797748E+02
(PID.TID 0000.0001) %MON extforcing_qnet_del2         =   9.4938612179245E+00
(PID.TID 0000.0001) %MON extforcing_qsw_max           =   0.0000000000000E+00
(PID.TID 0000.0001) %MON extforcing_qsw_min           =   0.0000000000000E+00
(PID.TID 0000.0001) %MON extforcing_qsw_mean          =   0.0000000000000E+00
(PID.TID 0000.0001) %MON extforcing_qsw_sd            =   0.0000000000000E+00
(PID.TID 0000.0001) %MON extforcing_qsw_del2          =   0.0000000000000E+00
(PID.TID 0000.0001) %MON extforcing_empmr_max         =   0.0000000000000E+00
(PID.TID 0000.0001) %MON extforcing_empmr_min         =   0.0000000000000E+00
(PID.TID 0000.0001) %MON extforcing_empmr_mean        =   0.0000000000000E+00
(PID.TID 0000.0001) %MON extforcing_empmr_sd          =   0.0000000000000E+00
(PID.TID 0000.0001) %MON extforcing_empmr_del2        =   0.0000000000000E+00
(PID.TID 0000.0001) %MON extforcing_fu_max            =   2.7274361997843E-01
(PID.TID 0000.0001) %MON extforcing_fu_min            =  -1.6071281954646E-01
(PID.TID 0000.0001) %MON extforcing_fu_mean           =   1.6097895415531E-02
(PID.TID 0000.0001) %MON extforcing_fu_sd             =   9.0135716811571E-02
(PID.TID 0000.0001) %MON extforcing_fu_del2           =   7.3621867243110E-03
(PID.TID 0000.0001) %MON extforcing_fv_max            =   2.0962250605226E-01
(PID.TID 0000.0001) %MON extforcing_fv_min            =  -1.8544511869550E-01
(PID.TID 0000.0001) %MON extforcing_fv_mean           =  -6.1809293252652E-03
(PID.TID 0000.0001) %MON extforcing_fv_sd             =   4.5444816425210E-02
(PID.TID 0000.0001) %MON extforcing_fv_del2           =   4.3430368437716E-03
(PID.TID 0000.0001) %MON advcfl_uvel_max              =   1.4693159424042E-02
(PID.TID 0000.0001) %MON advcfl_vvel_max              =   6.5736205493778E-03
(PID.TID 0000.0001) %MON advcfl_wvel_max              =   2.1404211742014E-01
(PID.TID 0000.0001) %MON advcfl_W_hf_max              =   2.2284403298520E-01
(PID.TID 0000.0001) %MON pe_b_mean                    =   4.1759515993280E-05
(PID.TID 0000.0001) %MON ke_max                       =   2.3327856086139E-03
(PID.TID 0000.0001) %MON ke_mean                      =   1.1779760189526E-04
(PID.TID 0000.0001) %MON ke_vol                       =   1.3226782436723E+18
(PID.TID 0000.0001) %MON vort_r_min                   =  -2.8519676154124E-07
(PID.TID 0000.0001) %MON vort_r_max                   =   3.1017727593799E-07
(PID.TID 0000.0001) %MON vort_a_mean                  =  -2.5205769323534E-05
(PID.TID 0000.0001) %MON vort_a_sd                    =   7.3402476678094E-05
(PID.TID 0000.0001) %MON vort_p_mean                  =  -3.1758669469390E-05
(PID.TID 0000.0001) %MON vort_p_sd                    =   1.3126427087800E-04
(PID.TID 0000.0001) %MON surfExpan_theta_mean         =   1.6289422783941E-04
(PID.TID 0000.0001) %MON surfExpan_salt_mean          =   1.3420994053203E-05
(PID.TID 0000.0001) // =======================================================
(PID.TID 0000.0001) // End MONITOR dynamic field statistics
(PID.TID 0000.0001) // =======================================================
time,SST,SSS,fu,fv,Q,E-P,i0,i1,a,b =   2.5920E+05  2.3421E-01  3.4434E+01 -3.9527E-02 -6.2453E-02  2.6523E+02  0.0000E+00    12     1  6.0000E-01  4.0000E-01
time,fu0,fu1,fu =   2.5920E+05 -4.5368E-02 -3.5633E-02 -3.9527E-02  6.000000000000000E-01  4.000000000000000E-01
 cg2d: Sum(rhs),rhsMax =  -1.04014019619569E-13  7.26221759046288E+00
(PID.TID 0000.0001)                    cg2d_init_res =    1.59109187525984E+00
(PID.TID 0000.0001)                       cg2d_iters =    26
(PID.TID 0000.0001)                         cg2d_res =    2.59473637700714E-14
(PID.TID 0000.0001) // =======================================================
(PID.TID 0000.0001) // Begin MONITOR dynamic field statistics
(PID.TID 0000.0001) // =======================================================
(PID.TID 0000.0001) %MON time_tsnumber                =                     7
(PID.TID 0000.0001) %MON time_secondsf                =   3.0240000000000E+05
(PID.TID 0000.0001) %MON dynstat_eta_max              =   8.3349049257095E-01
(PID.TID 0000.0001) %MON dynstat_eta_min              =  -7.0404098131051E-01
(PID.TID 0000.0001) %MON dynstat_eta_mean             =   9.7415997629761E-17
(PID.TID 0000.0001) %MON dynstat_eta_sd               =   2.0763530404025E-01
(PID.TID 0000.0001) %MON dynstat_eta_del2             =   2.7007532451213E-02
(PID.TID 0000.0001) %MON dynstat_uvel_max             =   7.9153516349538E-02
(PID.TID 0000.0001) %MON dynstat_uvel_min             =  -7.4904513892914E-02
(PID.TID 0000.0001) %MON dynstat_uvel_mean            =  -5.1848263977603E-03
(PID.TID 0000.0001) %MON dynstat_uvel_sd              =   7.8766085021306E-03
(PID.TID 0000.0001) %MON dynstat_uvel_del2            =   2.3442144005560E-03
(PID.TID 0000.0001) %MON dynstat_vvel_max             =   7.6954909115983E-02
(PID.TID 0000.0001) %MON dynstat_vvel_min             =  -6.8563182624029E-02
(PID.TID 0000.0001) %MON dynstat_vvel_mean            =   4.7959694963683E-03
(PID.TID 0000.0001) %MON dynstat_vvel_sd              =   1.4389978250049E-02
(PID.TID 0000.0001) %MON dynstat_vvel_del2            =   2.6997850075820E-03
(PID.TID 0000.0001) %MON dynstat_wvel_max             =   2.7057445484857E-04
(PID.TID 0000.0001) %MON dynstat_wvel_min             =  -2.8376270352987E-04
(PID.TID 0000.0001) %MON dynstat_wvel_mean            =   2.0526940395929E-21
(PID.TID 0000.0001) %MON dynstat_wvel_sd              =   3.3916923316566E-05
(PID.TID 0000.0001) %MON dynstat_wvel_del2            =   1.0993499012382E-05
(PID.TID 0000.0001) %MON dynstat_theta_max            =   2.9717409421784E+01
(PID.TID 0000.0001) %MON dynstat_theta_min            =  -1.9995274355230E+00
(PID.TID 0000.0001) %MON dynstat_theta_mean           =   3.6109883626114E+00
(PID.TID 0000.0001) %MON dynstat_theta_sd             =   4.3988812991035E+00
(PID.TID 0000.0001) %MON dynstat_theta_del2           =   1.4586427289273E-01
(PID.TID 0000.0001) %MON dynstat_salt_max             =   3.7444325087805E+01
(PID.TID 0000.0001) %MON dynstat_salt_min             =   2.9770812898029E+01
(PID.TID 0000.0001) %MON dynstat_salt_mean            =   3.4717271973542E+01
(PID.TID 0000.0001) %MON dynstat_salt_sd              =   2.9618541541710E-01
(PID.TID 0000.0001) %MON dynstat_salt_del2            =   2.6285435148272E-02
(PID.TID 0000.0001) %MON dynstat_sst_max              =   2.9717409421784E+01
(PID.TID 0000.0001) %MON dynstat_sst_min              =  -1.9012765799338E+00
(PID.TID 0000.0001) %MON dynstat_sst_mean             =   1.8490119095259E+01
(PID.TID 0000.0001) %MON dynstat_sst_sd               =   9.1072156889810E+00
(PID.TID 0000.0001) %MON dynstat_sst_del2             =   2.7247479455837E-01
(PID.TID 0000.0001) %MON dynstat_sss_max              =   3.7444325087805E+01
(PID.TID 0000.0001) %MON dynstat_sss_min              =   2.9770812898029E+01
(PID.TID 0000.0001) %MON dynstat_sss_mean             =   3.4848054699021E+01
(PID.TID 0000.0001) %MON dynstat_sss_sd               =   9.6519297387555E-01
(PID.TID 0000.0001) %MON dynstat_sss_del2             =   8.3350760954803E-02
(PID.TID 0000.0001) %MON extforcing_qnet_max          =   4.2903536987305E+02
(PID.TID 0000.0001) %MON extforcing_qnet_min          =  -1.8562549743652E+02
(PID.TID 0000.0001) %MON extforcing_qnet_mean         =  -1.6662669470921E+01
(PID.TID 0000.0001) %MON extforcing_qnet_sd           =   1.1221272517031E+02
(PID.TID 0000.0001) %MON extforcing_qnet_del2         =   9.4953524693249E+00
(PID.TID 0000.0001) %MON extforcing_qsw_max           =   0.0000000000000E+00
(PID.TID 0000.0001) %MON extforcing_qsw_min           =   0.0000000000000E+00
(PID.TID 0000.0001) %MON extforcing_qsw_mean          =   0.0000000000000E+00
(PID.TID 0000.0001) %MON extforcing_qsw_sd            =   0.0000000000000E+00
(PID.TID 0000.0001) %MON extforcing_qsw_del2          =   0.0000000000000E+00
(PID.TID 0000.0001) %MON extforcing_empmr_max         =   0.0000000000000E+00
(PID.TID 0000.0001) %MON extforcing_empmr_min         =   0.0000000000000E+00
(PID.TID 0000.0001) %MON extforcing_empmr_mean        =   0.0000000000000E+00
(PID.TID 0000.0001) %MON extforcing_empmr_sd          =   0.0000000000000E+00
(PID.TID 0000.0001) %MON extforcing_empmr_del2        =   0.0000000000000E+00
(PID.TID 0000.0001) %MON extforcing_fu_max            =   2.7231434583664E-01
(PID.TID 0000.0001) %MON extforcing_fu_min            =  -1.6111952960491E-01
(PID.TID 0000.0001) %MON extforcing_fu_mean           =   1.6094049005012E-02
(PID.TID 0000.0001) %MON extforcing_fu_sd             =   9.0140377513934E-02
(PID.TID 0000.0001) %MON extforcing_fu_del2           =   7.3624722576328E-03
(PID.TID 0000.0001) %MON extforcing_fv_max            =   2.1056245863438E-01
(PID.TID 0000.0001) %MON extforcing_fv_min            =  -1.8515278995037E-01
(PID.TID 0000.0001) %MON extforcing_fv_mean           =  -6.1440480618347E-03
(PID.TID 0000.0001) %MON extforcing_fv_sd             =   4.5513649503191E-02
(PID.TID 0000.0001) %MON extforcing_fv_del2           =   4.3482985726563E-03
(PID.TID 0000.0001) %MON advcfl_uvel_max              =   1.7008868219826E-02
(PID.TID 0000.0001) %MON advcfl_vvel_max              =   7.4755523164386E-03
(PID.TID 0000.0001) %MON advcfl_wvel_max              =   1.8646729452777E-01
(PID.TID 0000.0001) %MON advcfl_W_hf_max              =   1.8449339594674E-01
(PID.TID 0000.0001) %MON pe_b_mean                    =   5.5167537191596E-05
(PID.TID 0000.0001) %MON ke_max                       =   3.1804920146517E-03
(PID.TID 0000.0001) %MON ke_mean                      =   1.4368900554627E-04
(PID.TID 0000.0001) %MON ke_vol                       =   1.3226782436723E+18
(PID.TID 0000.0001) %MON vort_r_min                   =  -3.1105440957120E-07
(PID.TID 0000.0001) %MON vort_r_max                   =   3.3689380866977E-07
(PID.TID 0000.0001) %MON vort_a_mean                  =  -2.5205769365180E-05
(PID.TID 0000.0001) %MON vort_a_sd                    =   7.3402294900235E-05
(PID.TID 0000.0001) %MON vort_p_mean                  =  -3.1758669521864E-05
(PID.TID 0000.0001) %MON vort_p_sd                    =   1.3126370207674E-04
(PID.TID 0000.0001) %MON surfExpan_theta_mean         =   1.6860361637321E-04
(PID.TID 0000.0001) %MON surfExpan_salt_mean          =   1.3730560131218E-05
(PID.TID 0000.0001) // =======================================================
(PID.TID 0000.0001) // End MONITOR dynamic field statistics
(PID.TID 0000.0001) // =======================================================
time,SST,SSS,fu,fv,Q,E-P,i0,i1,a,b =   3.0240E+05  2.6438E-01  3.4446E+01 -3.9365E-02 -6.2237E-02  2.6525E+02  0.0000E+00    12     1  6.1667E-01  3.8333E-01
time,fu0,fu1,fu =   3.0240E+05 -4.5368E-02 -3.5633E-02 -3.9365E-02  6.166666666666667E-01  3.833333333333333E-01
 cg2d: Sum(rhs),rhsMax =   7.81484252310172E-14  7.87499194900247E+00
(PID.TID 0000.0001)                    cg2d_init_res =    1.41245790586782E+00
(PID.TID 0000.0001)                       cg2d_iters =    26
(PID.TID 0000.0001)                         cg2d_res =    2.31675084665065E-14
(PID.TID 0000.0001) // =======================================================
(PID.TID 0000.0001) // Begin MONITOR dynamic field statistics
(PID.TID 0000.0001) // =======================================================
(PID.TID 0000.0001) %MON time_tsnumber                =                     8
(PID.TID 0000.0001) %MON time_secondsf                =   3.4560000000000E+05
(PID.TID 0000.0001) %MON dynstat_eta_max              =   9.0735367710164E-01
(PID.TID 0000.0001) %MON dynstat_eta_min              =  -7.4823204338198E-01
(PID.TID 0000.0001) %MON dynstat_eta_mean             =   7.7711341828556E-17
(PID.TID 0000.0001) %MON dynstat_eta_sd               =   2.3350051528074E-01
(PID.TID 0000.0001) %MON dynstat_eta_del2             =   2.6394048224332E-02
(PID.TID 0000.0001) %MON dynstat_uvel_max             =   8.9752884934433E-02
(PID.TID 0000.0001) %MON dynstat_uvel_min             =  -9.3792769671150E-02
(PID.TID 0000.0001) %MON dynstat_uvel_mean            =  -6.1431838827180E-03
(PID.TID 0000.0001) %MON dynstat_uvel_sd              =   9.1955312139557E-03
(PID.TID 0000.0001) %MON dynstat_uvel_del2            =   2.5742472390371E-03
(PID.TID 0000.0001) %MON dynstat_vvel_max             =   8.3099354091284E-02
(PID.TID 0000.0001) %MON dynstat_vvel_min             =  -7.8090233400009E-02
(PID.TID 0000.0001) %MON dynstat_vvel_mean            =   5.0341133062225E-03
(PID.TID 0000.0001) %MON dynstat_vvel_sd              =   1.5022792271712E-02
(PID.TID 0000.0001) %MON dynstat_vvel_del2            =   2.9241682365211E-03
(PID.TID 0000.0001) %MON dynstat_wvel_max             =   2.8161794078744E-04
(PID.TID 0000.0001) %MON dynstat_wvel_min             =  -2.9811620276886E-04
(PID.TID 0000.0001) %MON dynstat_wvel_mean            =   5.4043977697571E-22
(PID.TID 0000.0001) %MON dynstat_wvel_sd              =   3.5230464278561E-05
(PID.TID 0000.0001) %MON dynstat_wvel_del2            =   1.1737611049317E-05
(PID.TID 0000.0001) %MON dynstat_theta_max            =   2.9704467184711E+01
(PID.TID 0000.0001) %MON dynstat_theta_min            =  -2.0326437172609E+00
(PID.TID 0000.0001) %MON dynstat_theta_mean           =   3.6090847857962E+00
(PID.TID 0000.0001) %MON dynstat_theta_sd             =   4.3947153452343E+00
(PID.TID 0000.0001) %MON dynstat_theta_del2           =   1.4520656581509E-01
(PID.TID 0000.0001) %MON dynstat_salt_max             =   3.7440569615491E+01
(PID.TID 0000.0001) %MON dynstat_salt_min             =   2.9773715405578E+01
(PID.TID 0000.0001) %MON dynstat_salt_mean            =   3.4717115126456E+01
(PID.TID 0000.0001) %MON dynstat_salt_sd              =   2.9618940101937E-01
(PID.TID 0000.0001) %MON dynstat_salt_del2            =   2.6239856445348E-02
(PID.TID 0000.0001) %MON dynstat_sst_max              =   2.9704467184711E+01
(PID.TID 0000.0001) %MON dynstat_sst_min              =  -1.9012074904869E+00
(PID.TID 0000.0001) %MON dynstat_sst_mean             =   1.8488133655652E+01
(PID.TID 0000.0001) %MON dynstat_sst_sd               =   9.0915437623884E+00
(PID.TID 0000.0001) %MON dynstat_sst_del2             =   2.7228032779730E-01
(PID.TID 0000.0001) %MON dynstat_sss_max              =   3.7440569615491E+01
(PID.TID 0000.0001) %MON dynstat_sss_min              =   2.9773715405578E+01
(PID.TID 0000.0001) %MON dynstat_sss_mean             =   3.4847700304941E+01
(PID.TID 0000.0001) %MON dynstat_sss_sd               =   9.6576636329158E-01
(PID.TID 0000.0001) %MON dynstat_sss_del2             =   8.3348551868878E-02
(PID.TID 0000.0001) %MON extforcing_qnet_max          =   4.2955946350098E+02
(PID.TID 0000.0001) %MON extforcing_qnet_min          =  -1.8539191614787E+02
(PID.TID 0000.0001) %MON extforcing_qnet_mean         =  -1.6656413493009E+01
(PID.TID 0000.0001) %MON extforcing_qnet_sd           =   1.1210764701191E+02
(PID.TID 0000.0001) %MON extforcing_qnet_del2         =   9.4970235630898E+00
(PID.TID 0000.0001) %MON extforcing_qsw_max           =   0.0000000000000E+00
(PID.TID 0000.0001) %MON extforcing_qsw_min           =   0.0000000000000E+00
(PID.TID 0000.0001) %MON extforcing_qsw_mean          =   0.0000000000000E+00
(PID.TID 0000.0001) %MON extforcing_qsw_sd            =   0.0000000000000E+00
(PID.TID 0000.0001) %MON extforcing_qsw_del2          =   0.0000000000000E+00
(PID.TID 0000.0001) %MON extforcing_empmr_max         =   0.0000000000000E+00
(PID.TID 0000.0001) %MON extforcing_empmr_min         =   0.0000000000000E+00
(PID.TID 0000.0001) %MON extforcing_empmr_mean        =   0.0000000000000E+00
(PID.TID 0000.0001) %MON extforcing_empmr_sd          =   0.0000000000000E+00
(PID.TID 0000.0001) %MON extforcing_empmr_del2        =   0.0000000000000E+00
(PID.TID 0000.0001) %MON extforcing_fu_max            =   2.7188507169485E-01
(PID.TID 0000.0001) %MON extforcing_fu_min            =  -1.6152623966336E-01
(PID.TID 0000.0001) %MON extforcing_fu_mean           =   1.6090202594494E-02
(PID.TID 0000.0001) %MON extforcing_fu_sd             =   9.0147753908164E-02
(PID.TID 0000.0001) %MON extforcing_fu_del2           =   7.3633563637293E-03
(PID.TID 0000.0001) %MON extforcing_fv_max            =   2.1150241121650E-01
(PID.TID 0000.0001) %MON extforcing_fv_min            =  -1.8486046120524E-01
(PID.TID 0000.0001) %MON extforcing_fv_mean           =  -6.1071667984044E-03
(PID.TID 0000.0001) %MON extforcing_fv_sd             =   4.5586260559939E-02
(PID.TID 0000.0001) %MON extforcing_fv_del2           =   4.3545288127825E-03
(PID.TID 0000.0001) %MON advcfl_uvel_max              =   1.8097694797228E-02
(PID.TID 0000.0001) %MON advcfl_vvel_max              =   8.0724358732642E-03
(PID.TID 0000.0001) %MON advcfl_wvel_max              =   2.0062573588497E-01
(PID.TID 0000.0001) %MON advcfl_W_hf_max              =   2.0082986802024E-01
(PID.TID 0000.0001) %MON pe_b_mean                    =   6.9768098519376E-05
(PID.TID 0000.0001) %MON ke_max                       =   4.1100414544121E-03
(PID.TID 0000.0001) %MON ke_mean                      =   1.6825799086512E-04
(PID.TID 0000.0001) %MON ke_vol                       =   1.3226782436723E+18
(PID.TID 0000.0001) %MON vort_r_min                   =  -3.2853109222037E-07
(PID.TID 0000.0001) %MON vort_r_max                   =   3.9683596887675E-07
(PID.TID 0000.0001) %MON vort_a_mean                  =  -2.5205769434239E-05
(PID.TID 0000.0001) %MON vort_a_sd                    =   7.3402114520934E-05
(PID.TID 0000.0001) %MON vort_p_mean                  =  -3.1758669608876E-05
(PID.TID 0000.0001) %MON vort_p_sd                    =   1.3126310127294E-04
(PID.TID 0000.0001) %MON surfExpan_theta_mean         =   1.6982678946910E-04
(PID.TID 0000.0001) %MON surfExpan_salt_mean          =   1.3628364267064E-05
(PID.TID 0000.0001) // =======================================================
(PID.TID 0000.0001) // End MONITOR dynamic field statistics
(PID.TID 0000.0001) // =======================================================
time,SST,SSS,fu,fv,Q,E-P,i0,i1,a,b =   3.4560E+05  2.9456E-01  3.4457E+01 -3.9202E-02 -6.2020E-02  2.6528E+02  0.0000E+00    12     1  6.3333E-01  3.6667E-01
time,fu0,fu1,fu =   3.4560E+05 -4.5368E-02 -3.5633E-02 -3.9202E-02  6.333333333333333E-01  3.666666666666667E-01
 cg2d: Sum(rhs),rhsMax =  -1.04612499218781E-13  8.21213972807563E+00
(PID.TID 0000.0001)                    cg2d_init_res =    1.30379077288963E+00
(PID.TID 0000.0001)                       cg2d_iters =    25
(PID.TID 0000.0001)                         cg2d_res =    9.53314993611343E-14
(PID.TID 0000.0001) // =======================================================
(PID.TID 0000.0001) // Begin MONITOR dynamic field statistics
(PID.TID 0000.0001) // =======================================================
(PID.TID 0000.0001) %MON time_tsnumber                =                     9
(PID.TID 0000.0001) %MON time_secondsf                =   3.8880000000000E+05
(PID.TID 0000.0001) %MON dynstat_eta_max              =   9.5051431827123E-01
(PID.TID 0000.0001) %MON dynstat_eta_min              =  -8.3276622115719E-01
(PID.TID 0000.0001) %MON dynstat_eta_mean             =   1.5810421491336E-16
(PID.TID 0000.0001) %MON dynstat_eta_sd               =   2.5794381186885E-01
(PID.TID 0000.0001) %MON dynstat_eta_del2             =   2.5826669241577E-02
(PID.TID 0000.0001) %MON dynstat_uvel_max             =   9.9696982194898E-02
(PID.TID 0000.0001) %MON dynstat_uvel_min             =  -1.1010140875155E-01
(PID.TID 0000.0001) %MON dynstat_uvel_mean            =  -7.0614502403024E-03
(PID.TID 0000.0001) %MON dynstat_uvel_sd              =   1.0493347510838E-02
(PID.TID 0000.0001) %MON dynstat_uvel_del2            =   2.7782849702069E-03
(PID.TID 0000.0001) %MON dynstat_vvel_max             =   8.6409748077651E-02
(PID.TID 0000.0001) %MON dynstat_vvel_min             =  -8.6517735981973E-02
(PID.TID 0000.0001) %MON dynstat_vvel_mean            =   5.1443895652502E-03
(PID.TID 0000.0001) %MON dynstat_vvel_sd              =   1.5387370389434E-02
(PID.TID 0000.0001) %MON dynstat_vvel_del2            =   3.1045730639601E-03
(PID.TID 0000.0001) %MON dynstat_wvel_max             =   2.8593826862520E-04
(PID.TID 0000.0001) %MON dynstat_wvel_min             =  -3.0681344963323E-04
(PID.TID 0000.0001) %MON dynstat_wvel_mean            =   8.2683019609627E-22
(PID.TID 0000.0001) %MON dynstat_wvel_sd              =   3.6129742915560E-05
(PID.TID 0000.0001) %MON dynstat_wvel_del2            =   1.2249198298025E-05
(PID.TID 0000.0001) %MON dynstat_theta_max            =   2.9672372723816E+01
(PID.TID 0000.0001) %MON dynstat_theta_min            =  -2.0644469622254E+00
(PID.TID 0000.0001) %MON dynstat_theta_mean           =   3.6071983918367E+00
(PID.TID 0000.0001) %MON dynstat_theta_sd             =   4.3904513875827E+00
(PID.TID 0000.0001) %MON dynstat_theta_del2           =   1.4452302095246E-01
(PID.TID 0000.0001) %MON dynstat_salt_max             =   3.7437195134482E+01
(PID.TID 0000.0001) %MON dynstat_salt_min             =   2.9776324644208E+01
(PID.TID 0000.0001) %MON dynstat_salt_mean            =   3.4716962231466E+01
(PID.TID 0000.0001) %MON dynstat_salt_sd              =   2.9618507735260E-01
(PID.TID 0000.0001) %MON dynstat_salt_del2            =   2.6194963257044E-02
(PID.TID 0000.0001) %MON dynstat_sst_max              =   2.9672372723816E+01
(PID.TID 0000.0001) %MON dynstat_sst_min              =  -1.9011760455528E+00
(PID.TID 0000.0001) %MON dynstat_sst_mean             =   1.8486149507566E+01
(PID.TID 0000.0001) %MON dynstat_sst_sd               =   9.0757338913750E+00
(PID.TID 0000.0001) %MON dynstat_sst_del2             =   2.7236778713048E-01
(PID.TID 0000.0001) %MON dynstat_sss_max              =   3.7437195134482E+01
(PID.TID 0000.0001) %MON dynstat_sss_min              =   2.9776324644208E+01
(PID.TID 0000.0001) %MON dynstat_sss_mean             =   3.4847363085185E+01
(PID.TID 0000.0001) %MON dynstat_sss_sd               =   9.6628778116645E-01
(PID.TID 0000.0001) %MON dynstat_sss_del2             =   8.3273814828372E-02
(PID.TID 0000.0001) %MON extforcing_qnet_max          =   4.3008355712891E+02
(PID.TID 0000.0001) %MON extforcing_qnet_min          =  -1.8515833485921E+02
(PID.TID 0000.0001) %MON extforcing_qnet_mean         =  -1.6650157515098E+01
(PID.TID 0000.0001) %MON extforcing_qnet_sd           =   1.1200321531664E+02
(PID.TID 0000.0001) %MON extforcing_qnet_del2         =   9.4991829492293E+00
(PID.TID 0000.0001) %MON extforcing_qsw_max           =   0.0000000000000E+00
(PID.TID 0000.0001) %MON extforcing_qsw_min           =   0.0000000000000E+00
(PID.TID 0000.0001) %MON extforcing_qsw_mean          =   0.0000000000000E+00
(PID.TID 0000.0001) %MON extforcing_qsw_sd            =   0.0000000000000E+00
(PID.TID 0000.0001) %MON extforcing_qsw_del2          =   0.0000000000000E+00
(PID.TID 0000.0001) %MON extforcing_empmr_max         =   0.0000000000000E+00
(PID.TID 0000.0001) %MON extforcing_empmr_min         =   0.0000000000000E+00
(PID.TID 0000.0001) %MON extforcing_empmr_mean        =   0.0000000000000E+00
(PID.TID 0000.0001) %MON extforcing_empmr_sd          =   0.0000000000000E+00
(PID.TID 0000.0001) %MON extforcing_empmr_del2        =   0.0000000000000E+00
(PID.TID 0000.0001) %MON extforcing_fu_max            =   2.7145579755306E-01
(PID.TID 0000.0001) %MON extforcing_fu_min            =  -1.6193294972181E-01
(PID.TID 0000.0001) %MON extforcing_fu_mean           =   1.6086356183975E-02
(PID.TID 0000.0001) %MON extforcing_fu_sd             =   9.0157845327697E-02
(PID.TID 0000.0001) %MON extforcing_fu_del2           =   7.3650677971764E-03
(PID.TID 0000.0001) %MON extforcing_fv_max            =   2.1244236379862E-01
(PID.TID 0000.0001) %MON extforcing_fv_min            =  -1.8456813246012E-01
(PID.TID 0000.0001) %MON extforcing_fv_mean           =  -6.0702855349739E-03
(PID.TID 0000.0001) %MON extforcing_fv_sd             =   4.5662631572644E-02
(PID.TID 0000.0001) %MON extforcing_fv_del2           =   4.3628461453053E-03
(PID.TID 0000.0001) %MON advcfl_uvel_max              =   1.7826084531932E-02
(PID.TID 0000.0001) %MON advcfl_vvel_max              =   8.4045042618175E-03
(PID.TID 0000.0001) %MON advcfl_wvel_max              =   2.0591553950833E-01
(PID.TID 0000.0001) %MON advcfl_W_hf_max              =   2.1196277430422E-01
(PID.TID 0000.0001) %MON pe_b_mean                    =   8.5139565052302E-05
(PID.TID 0000.0001) %MON ke_max                       =   5.0975561226348E-03
(PID.TID 0000.0001) %MON ke_mean                      =   1.9085694176873E-04
(PID.TID 0000.0001) %MON ke_vol                       =   1.3226782436723E+18
(PID.TID 0000.0001) %MON vort_r_min                   =  -3.3885962124025E-07
(PID.TID 0000.0001) %MON vort_r_max                   =   4.6640739596264E-07
(PID.TID 0000.0001) %MON vort_a_mean                  =  -2.5205769519128E-05
(PID.TID 0000.0001) %MON vort_a_sd                    =   7.3401940787012E-05
(PID.TID 0000.0001) %MON vort_p_mean                  =  -3.1758669715834E-05
(PID.TID 0000.0001) %MON vort_p_sd                    =   1.3126248828726E-04
(PID.TID 0000.0001) %MON surfExpan_theta_mean         =   1.6713758936560E-04
(PID.TID 0000.0001) %MON surfExpan_salt_mean          =   1.3161848650528E-05
(PID.TID 0000.0001) // =======================================================
(PID.TID 0000.0001) // End MONITOR dynamic field statistics
(PID.TID 0000.0001) // =======================================================
time,SST,SSS,fu,fv,Q,E-P,i0,i1,a,b =   3.8880E+05  3.2473E-01  3.4469E+01 -3.9040E-02 -6.1804E-02  2.6530E+02  0.0000E+00    12     1  6.5000E-01  3.5000E-01
time,fu0,fu1,fu =   3.8880E+05 -4.5368E-02 -3.5633E-02 -3.9040E-02  6.500000000000000E-01  3.500000000000000E-01
 cg2d: Sum(rhs),rhsMax =  -7.98918223243739E-14  8.31512136376637E+00
(PID.TID 0000.0001)                    cg2d_init_res =    1.23977444010344E+00
(PID.TID 0000.0001)                       cg2d_iters =    25
(PID.TID 0000.0001)                         cg2d_res =    8.86982767571572E-14
(PID.TID 0000.0001) // =======================================================
(PID.TID 0000.0001) // Begin MONITOR dynamic field statistics
(PID.TID 0000.0001) // =======================================================
(PID.TID 0000.0001) %MON time_tsnumber                =                    10
(PID.TID 0000.0001) %MON time_secondsf                =   4.3200000000000E+05
(PID.TID 0000.0001) %MON dynstat_eta_max              =   9.6751398357437E-01
(PID.TID 0000.0001) %MON dynstat_eta_min              =  -8.8670297425876E-01
(PID.TID 0000.0001) %MON dynstat_eta_mean             =   2.0755688698608E-16
(PID.TID 0000.0001) %MON dynstat_eta_sd               =   2.8064982458465E-01
(PID.TID 0000.0001) %MON dynstat_eta_del2             =   2.5160191512478E-02
(PID.TID 0000.0001) %MON dynstat_uvel_max             =   1.0901155322192E-01
(PID.TID 0000.0001) %MON dynstat_uvel_min             =  -1.2267213624700E-01
(PID.TID 0000.0001) %MON dynstat_uvel_mean            =  -7.9108717853699E-03
(PID.TID 0000.0001) %MON dynstat_uvel_sd              =   1.1740625776251E-02
(PID.TID 0000.0001) %MON dynstat_uvel_del2            =   2.9569621833079E-03
(PID.TID 0000.0001) %MON dynstat_vvel_max             =   9.6269215752065E-02
(PID.TID 0000.0001) %MON dynstat_vvel_min             =  -9.3664855034048E-02
(PID.TID 0000.0001) %MON dynstat_vvel_mean            =   5.1335120798517E-03
(PID.TID 0000.0001) %MON dynstat_vvel_sd              =   1.5522418185881E-02
(PID.TID 0000.0001) %MON dynstat_vvel_del2            =   3.2459312086734E-03
(PID.TID 0000.0001) %MON dynstat_wvel_max             =   2.8286995399672E-04
(PID.TID 0000.0001) %MON dynstat_wvel_min             =  -3.1979080844398E-04
(PID.TID 0000.0001) %MON dynstat_wvel_mean            =   7.2703164463114E-22
(PID.TID 0000.0001) %MON dynstat_wvel_sd              =   3.6575442005342E-05
(PID.TID 0000.0001) %MON dynstat_wvel_del2            =   1.2527043420129E-05
(PID.TID 0000.0001) %MON dynstat_theta_max            =   2.9630623847862E+01
(PID.TID 0000.0001) %MON dynstat_theta_min            =  -2.0926240873362E+00
(PID.TID 0000.0001) %MON dynstat_theta_mean           =   3.6053693934024E+00
(PID.TID 0000.0001) %MON dynstat_theta_sd             =   4.3861597359389E+00
(PID.TID 0000.0001) %MON dynstat_theta_del2           =   1.4386059812778E-01
(PID.TID 0000.0001) %MON dynstat_salt_max             =   3.7434199175466E+01
(PID.TID 0000.0001) %MON dynstat_salt_min             =   2.9778561339128E+01
(PID.TID 0000.0001) %MON dynstat_salt_mean            =   3.4716817073349E+01
(PID.TID 0000.0001) %MON dynstat_salt_sd              =   2.9617323040338E-01
(PID.TID 0000.0001) %MON dynstat_salt_del2            =   2.6156728211808E-02
(PID.TID 0000.0001) %MON dynstat_sst_max              =   2.9630623847862E+01
(PID.TID 0000.0001) %MON dynstat_sst_min              =  -1.9016124407361E+00
(PID.TID 0000.0001) %MON dynstat_sst_mean             =   1.8484511408027E+01
(PID.TID 0000.0001) %MON dynstat_sst_sd               =   9.0596832353967E+00
(PID.TID 0000.0001) %MON dynstat_sst_del2             =   2.7254294327147E-01
(PID.TID 0000.0001) %MON dynstat_sss_max              =   3.7434199175466E+01
(PID.TID 0000.0001) %MON dynstat_sss_min              =   2.9778561339128E+01
(PID.TID 0000.0001) %MON dynstat_sss_mean             =   3.4847114641419E+01
(PID.TID 0000.0001) %MON dynstat_sss_sd               =   9.6679521773863E-01
(PID.TID 0000.0001) %MON dynstat_sss_del2             =   8.3222292143291E-02
(PID.TID 0000.0001) %MON extforcing_qnet_max          =   4.3060765075684E+02
(PID.TID 0000.0001) %MON extforcing_qnet_min          =  -1.8492475357056E+02
(PID.TID 0000.0001) %MON extforcing_qnet_mean         =  -1.6643901537186E+01
(PID.TID 0000.0001) %MON extforcing_qnet_sd           =   1.1189943189448E+02
(PID.TID 0000.0001) %MON extforcing_qnet_del2         =   9.5020530008678E+00
(PID.TID 0000.0001) %MON extforcing_qsw_max           =   0.0000000000000E+00
(PID.TID 0000.0001) %MON extforcing_qsw_min           =   0.0000000000000E+00
(PID.TID 0000.0001) %MON extforcing_qsw_mean          =   0.0000000000000E+00
(PID.TID 0000.0001) %MON extforcing_qsw_sd            =   0.0000000000000E+00
(PID.TID 0000.0001) %MON extforcing_qsw_del2          =   0.0000000000000E+00
(PID.TID 0000.0001) %MON extforcing_empmr_max         =   0.0000000000000E+00
(PID.TID 0000.0001) %MON extforcing_empmr_min         =   0.0000000000000E+00
(PID.TID 0000.0001) %MON extforcing_empmr_mean        =   0.0000000000000E+00
(PID.TID 0000.0001) %MON extforcing_empmr_sd          =   0.0000000000000E+00
(PID.TID 0000.0001) %MON extforcing_empmr_del2        =   0.0000000000000E+00
(PID.TID 0000.0001) %MON extforcing_fu_max            =   2.7102652341127E-01
(PID.TID 0000.0001) %MON extforcing_fu_min            =  -1.6233965978026E-01
(PID.TID 0000.0001) %MON extforcing_fu_mean           =   1.6082509773456E-02
(PID.TID 0000.0001) %MON extforcing_fu_sd             =   9.0170650860979E-02
(PID.TID 0000.0001) %MON extforcing_fu_del2           =   7.3674509117048E-03
(PID.TID 0000.0001) %MON extforcing_fv_max            =   2.1338231638074E-01
(PID.TID 0000.0001) %MON extforcing_fv_min            =  -1.8427580371499E-01
(PID.TID 0000.0001) %MON extforcing_fv_mean           =  -6.0334042715435E-03
(PID.TID 0000.0001) %MON extforcing_fv_sd             =   4.5742743708708E-02
(PID.TID 0000.0001) %MON extforcing_fv_del2           =   4.3720937186898E-03
(PID.TID 0000.0001) %MON advcfl_uvel_max              =   1.6317142889220E-02
(PID.TID 0000.0001) %MON advcfl_vvel_max              =   9.3517823240155E-03
(PID.TID 0000.0001) %MON advcfl_wvel_max              =   2.0148809642550E-01
(PID.TID 0000.0001) %MON advcfl_W_hf_max              =   2.0347416318419E-01
(PID.TID 0000.0001) %MON pe_b_mean                    =   1.0078844629535E-04
(PID.TID 0000.0001) %MON ke_max                       =   6.1348325558698E-03
(PID.TID 0000.0001) %MON ke_mean                      =   2.1105771671178E-04
(PID.TID 0000.0001) %MON ke_vol                       =   1.3226782436723E+18
(PID.TID 0000.0001) %MON vort_r_min                   =  -3.4555272003056E-07
(PID.TID 0000.0001) %MON vort_r_max                   =   5.2623144497051E-07
(PID.TID 0000.0001) %MON vort_a_mean                  =  -2.5205769606129E-05
(PID.TID 0000.0001) %MON vort_a_sd                    =   7.3401778686455E-05
(PID.TID 0000.0001) %MON vort_p_mean                  =  -3.1758669825454E-05
(PID.TID 0000.0001) %MON vort_p_sd                    =   1.3126188512104E-04
(PID.TID 0000.0001) %MON surfExpan_theta_mean         =   1.6113241621614E-04
(PID.TID 0000.0001) %MON surfExpan_salt_mean          =   1.2383328079907E-05
(PID.TID 0000.0001) // =======================================================
(PID.TID 0000.0001) // End MONITOR dynamic field statistics
(PID.TID 0000.0001) // =======================================================
time,SST,SSS,fu,fv,Q,E-P,i0,i1,a,b =   4.3200E+05  3.5491E-01  3.4481E+01 -3.8878E-02 -6.1587E-02  2.6532E+02  0.0000E+00    12     1  6.6667E-01  3.3333E-01
time,fu0,fu1,fu =   4.3200E+05 -4.5368E-02 -3.5633E-02 -3.8878E-02  6.666666666666666E-01  3.333333333333334E-01
 cg2d: Sum(rhs),rhsMax =  -6.48522902046977E-13  8.25257067290292E+00
(PID.TID 0000.0001)                    cg2d_init_res =    1.20278343892690E+00
(PID.TID 0000.0001)                       cg2d_iters =    25
(PID.TID 0000.0001)                         cg2d_res =    8.44304680227783E-14
(PID.TID 0000.0001) // =======================================================
(PID.TID 0000.0001) // Begin MONITOR dynamic field statistics
(PID.TID 0000.0001) // =======================================================
(PID.TID 0000.0001) %MON time_tsnumber                =                    11
(PID.TID 0000.0001) %MON time_secondsf                =   4.7520000000000E+05
(PID.TID 0000.0001) %MON dynstat_eta_max              =   9.6541816425738E-01
(PID.TID 0000.0001) %MON dynstat_eta_min              =  -9.1736810304629E-01
(PID.TID 0000.0001) %MON dynstat_eta_mean             =   2.8760660897345E-16
(PID.TID 0000.0001) %MON dynstat_eta_sd               =   3.0132752952854E-01
(PID.TID 0000.0001) %MON dynstat_eta_del2             =   2.4459037040567E-02
(PID.TID 0000.0001) %MON dynstat_uvel_max             =   1.1769465712492E-01
(PID.TID 0000.0001) %MON dynstat_uvel_min             =  -1.3089968360151E-01
(PID.TID 0000.0001) %MON dynstat_uvel_mean            =  -8.6657231202906E-03
(PID.TID 0000.0001) %MON dynstat_uvel_sd              =   1.2912406760149E-02
(PID.TID 0000.0001) %MON dynstat_uvel_del2            =   3.1118881772882E-03
(PID.TID 0000.0001) %MON dynstat_vvel_max             =   1.0387511696069E-01
(PID.TID 0000.0001) %MON dynstat_vvel_min             =  -9.9310042626857E-02
(PID.TID 0000.0001) %MON dynstat_vvel_mean            =   5.0131123557349E-03
(PID.TID 0000.0001) %MON dynstat_vvel_sd              =   1.5473140798891E-02
(PID.TID 0000.0001) %MON dynstat_vvel_del2            =   3.3526495470768E-03
(PID.TID 0000.0001) %MON dynstat_wvel_max             =   2.7561726464576E-04
(PID.TID 0000.0001) %MON dynstat_wvel_min             =  -3.4113877707601E-04
(PID.TID 0000.0001) %MON dynstat_wvel_mean            =   1.9820712540353E-21
(PID.TID 0000.0001) %MON dynstat_wvel_sd              =   3.6580992142116E-05
(PID.TID 0000.0001) %MON dynstat_wvel_del2            =   1.2596906267542E-05
(PID.TID 0000.0001) %MON dynstat_theta_max            =   2.9588562763070E+01
(PID.TID 0000.0001) %MON dynstat_theta_min            =  -2.1154882733607E+00
(PID.TID 0000.0001) %MON dynstat_theta_mean           =   3.6036310729066E+00
(PID.TID 0000.0001) %MON dynstat_theta_sd             =   4.3819021402935E+00
(PID.TID 0000.0001) %MON dynstat_theta_del2           =   1.4327157976255E-01
(PID.TID 0000.0001) %MON dynstat_salt_max             =   3.7431584631372E+01
(PID.TID 0000.0001) %MON dynstat_salt_min             =   2.9780371716712E+01
(PID.TID 0000.0001) %MON dynstat_salt_mean            =   3.4716682809891E+01
(PID.TID 0000.0001) %MON dynstat_salt_sd              =   2.9615486672138E-01
(PID.TID 0000.0001) %MON dynstat_salt_del2            =   2.6122903641571E-02
(PID.TID 0000.0001) %MON dynstat_sst_max              =   2.9588562763070E+01
(PID.TID 0000.0001) %MON dynstat_sst_min              =  -1.9020597436950E+00
(PID.TID 0000.0001) %MON dynstat_sst_mean             =   1.8483120379035E+01
(PID.TID 0000.0001) %MON dynstat_sst_sd               =   9.0438555730132E+00
(PID.TID 0000.0001) %MON dynstat_sst_del2             =   2.7303740754594E-01
(PID.TID 0000.0001) %MON dynstat_sss_max              =   3.7431584631372E+01
(PID.TID 0000.0001) %MON dynstat_sss_min              =   2.9780371716712E+01
(PID.TID 0000.0001) %MON dynstat_sss_mean             =   3.4846915705626E+01
(PID.TID 0000.0001) %MON dynstat_sss_sd               =   9.6723444505974E-01
(PID.TID 0000.0001) %MON dynstat_sss_del2             =   8.3168972875332E-02
(PID.TID 0000.0001) %MON extforcing_qnet_max          =   4.3113174438477E+02
(PID.TID 0000.0001) %MON extforcing_qnet_min          =  -1.8469117228190E+02
(PID.TID 0000.0001) %MON extforcing_qnet_mean         =  -1.6637645559275E+01
(PID.TID 0000.0001) %MON extforcing_qnet_sd           =   1.1179629855085E+02
(PID.TID 0000.0001) %MON extforcing_qnet_del2         =   9.5054858461914E+00
(PID.TID 0000.0001) %MON extforcing_qsw_max           =   0.0000000000000E+00
(PID.TID 0000.0001) %MON extforcing_qsw_min           =   0.0000000000000E+00
(PID.TID 0000.0001) %MON extforcing_qsw_mean          =   0.0000000000000E+00
(PID.TID 0000.0001) %MON extforcing_qsw_sd            =   0.0000000000000E+00
(PID.TID 0000.0001) %MON extforcing_qsw_del2          =   0.0000000000000E+00
(PID.TID 0000.0001) %MON extforcing_empmr_max         =   0.0000000000000E+00
(PID.TID 0000.0001) %MON extforcing_empmr_min         =   0.0000000000000E+00
(PID.TID 0000.0001) %MON extforcing_empmr_mean        =   0.0000000000000E+00
(PID.TID 0000.0001) %MON extforcing_empmr_sd          =   0.0000000000000E+00
(PID.TID 0000.0001) %MON extforcing_empmr_del2        =   0.0000000000000E+00
(PID.TID 0000.0001) %MON extforcing_fu_max            =   2.7059724926949E-01
(PID.TID 0000.0001) %MON extforcing_fu_min            =  -1.6274636983871E-01
(PID.TID 0000.0001) %MON extforcing_fu_mean           =   1.6078663362938E-02
(PID.TID 0000.0001) %MON extforcing_fu_sd             =   9.0186169351879E-02
(PID.TID 0000.0001) %MON extforcing_fu_del2           =   7.3711458055900E-03
(PID.TID 0000.0001) %MON extforcing_fv_max            =   2.1432226896286E-01
(PID.TID 0000.0001) %MON extforcing_fv_min            =  -1.8398347496986E-01
(PID.TID 0000.0001) %MON extforcing_fv_mean           =  -5.9965230081131E-03
(PID.TID 0000.0001) %MON extforcing_fv_sd             =   4.5826577347902E-02
(PID.TID 0000.0001) %MON extforcing_fv_del2           =   4.3818909283374E-03
(PID.TID 0000.0001) %MON advcfl_uvel_max              =   1.7566992634370E-02
(PID.TID 0000.0001) %MON advcfl_vvel_max              =   1.0090634634438E-02
(PID.TID 0000.0001) %MON advcfl_wvel_max              =   1.9676593223642E-01
(PID.TID 0000.0001) %MON advcfl_W_hf_max              =   1.8963170047327E-01
(PID.TID 0000.0001) %MON pe_b_mean                    =   1.1618734349997E-04
(PID.TID 0000.0001) %MON ke_max                       =   7.2092499098728E-03
(PID.TID 0000.0001) %MON ke_mean                      =   2.2863257495068E-04
(PID.TID 0000.0001) %MON ke_vol                       =   1.3226782436723E+18
(PID.TID 0000.0001) %MON vort_r_min                   =  -3.4930922357492E-07
(PID.TID 0000.0001) %MON vort_r_max                   =   5.7316846580513E-07
(PID.TID 0000.0001) %MON vort_a_mean                  =  -2.5205769682992E-05
(PID.TID 0000.0001) %MON vort_a_sd                    =   7.3401632789959E-05
(PID.TID 0000.0001) %MON vort_p_mean                  =  -3.1758669922300E-05
(PID.TID 0000.0001) %MON vort_p_sd                    =   1.3126131594496E-04
(PID.TID 0000.0001) %MON surfExpan_theta_mean         =   1.5242494515522E-04
(PID.TID 0000.0001) %MON surfExpan_salt_mean          =   1.1355210918794E-05
(PID.TID 0000.0001) // =======================================================
(PID.TID 0000.0001) // End MONITOR dynamic field statistics
(PID.TID 0000.0001) // =======================================================
time,SST,SSS,fu,fv,Q,E-P,i0,i1,a,b =   4.7520E+05  3.8508E-01  3.4492E+01 -3.8716E-02 -6.1371E-02  2.6534E+02  0.0000E+00    12     1  6.8333E-01  3.1667E-01
time,fu0,fu1,fu =   4.7520E+05 -4.5368E-02 -3.5633E-02 -3.8716E-02  6.833333333333333E-01  3.166666666666667E-01
 cg2d: Sum(rhs),rhsMax =  -1.00974176936441E-12  8.09293762885827E+00
(PID.TID 0000.0001)                    cg2d_init_res =    1.18131234012128E+00
(PID.TID 0000.0001)                       cg2d_iters =    25
(PID.TID 0000.0001)                         cg2d_res =    8.15135701560304E-14
(PID.TID 0000.0001) // =======================================================
(PID.TID 0000.0001) // Begin MONITOR dynamic field statistics
(PID.TID 0000.0001) // =======================================================
(PID.TID 0000.0001) %MON time_tsnumber                =                    12
(PID.TID 0000.0001) %MON time_secondsf                =   5.1840000000000E+05
(PID.TID 0000.0001) %MON dynstat_eta_max              =   9.9559546635530E-01
(PID.TID 0000.0001) %MON dynstat_eta_min              =  -1.0106246969315E+00
(PID.TID 0000.0001) %MON dynstat_eta_mean             =   4.3085096631178E-16
(PID.TID 0000.0001) %MON dynstat_eta_sd               =   3.1973749188835E-01
(PID.TID 0000.0001) %MON dynstat_eta_del2             =   2.3709518680937E-02
(PID.TID 0000.0001) %MON dynstat_uvel_max             =   1.2571746839140E-01
(PID.TID 0000.0001) %MON dynstat_uvel_min             =  -1.3462242584723E-01
(PID.TID 0000.0001) %MON dynstat_uvel_mean            =  -9.3043362642605E-03
(PID.TID 0000.0001) %MON dynstat_uvel_sd              =   1.3989257833711E-02
(PID.TID 0000.0001) %MON dynstat_uvel_del2            =   3.2420783964445E-03
(PID.TID 0000.0001) %MON dynstat_vvel_max             =   1.0891658057006E-01
(PID.TID 0000.0001) %MON dynstat_vvel_min             =  -1.0323144080395E-01
(PID.TID 0000.0001) %MON dynstat_vvel_mean            =   4.7992750497627E-03
(PID.TID 0000.0001) %MON dynstat_vvel_sd              =   1.5288905606265E-02
(PID.TID 0000.0001) %MON dynstat_vvel_del2            =   3.4253071753479E-03
(PID.TID 0000.0001) %MON dynstat_wvel_max             =   2.6648874308902E-04
(PID.TID 0000.0001) %MON dynstat_wvel_min             =  -3.5708048989514E-04
(PID.TID 0000.0001) %MON dynstat_wvel_mean            =   3.2146097420909E-22
(PID.TID 0000.0001) %MON dynstat_wvel_sd              =   3.6197950464922E-05
(PID.TID 0000.0001) %MON dynstat_wvel_del2            =   1.2486803422444E-05
(PID.TID 0000.0001) %MON dynstat_theta_max            =   2.9550623886904E+01
(PID.TID 0000.0001) %MON dynstat_theta_min            =  -2.1318612629382E+00
(PID.TID 0000.0001) %MON dynstat_theta_mean           =   3.6020097125281E+00
(PID.TID 0000.0001) %MON dynstat_theta_sd             =   4.3777338951388E+00
(PID.TID 0000.0001) %MON dynstat_theta_del2           =   1.4271181558030E-01
(PID.TID 0000.0001) %MON dynstat_salt_max             =   3.7429387152177E+01
(PID.TID 0000.0001) %MON dynstat_salt_min             =   2.9781728901294E+01
(PID.TID 0000.0001) %MON dynstat_salt_mean            =   3.4716561831109E+01
(PID.TID 0000.0001) %MON dynstat_salt_sd              =   2.9613115524057E-01
(PID.TID 0000.0001) %MON dynstat_salt_del2            =   2.6095178111726E-02
(PID.TID 0000.0001) %MON dynstat_sst_max              =   2.9550623886904E+01
(PID.TID 0000.0001) %MON dynstat_sst_min              =  -1.9025188874296E+00
(PID.TID 0000.0001) %MON dynstat_sst_mean             =   1.8482246278737E+01
(PID.TID 0000.0001) %MON dynstat_sst_sd               =   9.0283020729395E+00
(PID.TID 0000.0001) %MON dynstat_sst_del2             =   2.7333962577263E-01
(PID.TID 0000.0001) %MON dynstat_sss_max              =   3.7429387152177E+01
(PID.TID 0000.0001) %MON dynstat_sss_min              =   2.9781728901294E+01
(PID.TID 0000.0001) %MON dynstat_sss_mean             =   3.4846871636823E+01
(PID.TID 0000.0001) %MON dynstat_sss_sd               =   9.6762388464432E-01
(PID.TID 0000.0001) %MON dynstat_sss_del2             =   8.3084880244118E-02
(PID.TID 0000.0001) %MON extforcing_qnet_max          =   4.3165583801270E+02
(PID.TID 0000.0001) %MON extforcing_qnet_min          =  -1.8445759099325E+02
(PID.TID 0000.0001) %MON extforcing_qnet_mean         =  -1.6631389581363E+01
(PID.TID 0000.0001) %MON extforcing_qnet_sd           =   1.1169381708650E+02
(PID.TID 0000.0001) %MON extforcing_qnet_del2         =   9.5091443193612E+00
(PID.TID 0000.0001) %MON extforcing_qsw_max           =   0.0000000000000E+00
(PID.TID 0000.0001) %MON extforcing_qsw_min           =   0.0000000000000E+00
(PID.TID 0000.0001) %MON extforcing_qsw_mean          =   0.0000000000000E+00
(PID.TID 0000.0001) %MON extforcing_qsw_sd            =   0.0000000000000E+00
(PID.TID 0000.0001) %MON extforcing_qsw_del2          =   0.0000000000000E+00
(PID.TID 0000.0001) %MON extforcing_empmr_max         =   0.0000000000000E+00
(PID.TID 0000.0001) %MON extforcing_empmr_min         =   0.0000000000000E+00
(PID.TID 0000.0001) %MON extforcing_empmr_mean        =   0.0000000000000E+00
(PID.TID 0000.0001) %MON extforcing_empmr_sd          =   0.0000000000000E+00
(PID.TID 0000.0001) %MON extforcing_empmr_del2        =   0.0000000000000E+00
(PID.TID 0000.0001) %MON extforcing_fu_max            =   2.7016797512770E-01
(PID.TID 0000.0001) %MON extforcing_fu_min            =  -1.6315307989717E-01
(PID.TID 0000.0001) %MON extforcing_fu_mean           =   1.6074816952419E-02
(PID.TID 0000.0001) %MON extforcing_fu_sd             =   9.0204399400210E-02
(PID.TID 0000.0001) %MON extforcing_fu_del2           =   7.3757470571508E-03
(PID.TID 0000.0001) %MON extforcing_fv_max            =   2.1526222154498E-01
(PID.TID 0000.0001) %MON extforcing_fv_min            =  -1.8369114622474E-01
(PID.TID 0000.0001) %MON extforcing_fv_mean           =  -5.9596417446827E-03
(PID.TID 0000.0001) %MON extforcing_fv_sd             =   4.5914112105179E-02
(PID.TID 0000.0001) %MON extforcing_fv_del2           =   4.3935876268221E-03
(PID.TID 0000.0001) %MON advcfl_uvel_max              =   2.1075171778564E-02
(PID.TID 0000.0001) %MON advcfl_vvel_max              =   1.0580372396411E-02
(PID.TID 0000.0001) %MON advcfl_wvel_max              =   2.0122873901372E-01
(PID.TID 0000.0001) %MON advcfl_W_hf_max              =   1.7557550680148E-01
(PID.TID 0000.0001) %MON pe_b_mean                    =   1.3081824784857E-04
(PID.TID 0000.0001) %MON ke_max                       =   8.3008753234938E-03
(PID.TID 0000.0001) %MON ke_mean                      =   2.4352098567428E-04
(PID.TID 0000.0001) %MON ke_vol                       =   1.3226782436723E+18
(PID.TID 0000.0001) %MON vort_r_min                   =  -3.3976043571228E-07
(PID.TID 0000.0001) %MON vort_r_max                   =   6.0494877176608E-07
(PID.TID 0000.0001) %MON vort_a_mean                  =  -2.5205769740083E-05
(PID.TID 0000.0001) %MON vort_a_sd                    =   7.3401507071809E-05
(PID.TID 0000.0001) %MON vort_p_mean                  =  -3.1758669994233E-05
(PID.TID 0000.0001) %MON vort_p_sd                    =   1.3126080552643E-04
(PID.TID 0000.0001) %MON surfExpan_theta_mean         =   1.4158989566653E-04
(PID.TID 0000.0001) %MON surfExpan_salt_mean          =   1.0143324317536E-05
(PID.TID 0000.0001) // =======================================================
(PID.TID 0000.0001) // End MONITOR dynamic field statistics
(PID.TID 0000.0001) // =======================================================
time,SST,SSS,fu,fv,Q,E-P,i0,i1,a,b =   5.1840E+05  4.1526E-01  3.4504E+01 -3.8553E-02 -6.1154E-02  2.6537E+02  0.0000E+00    12     1  7.0000E-01  3.0000E-01
time,fu0,fu1,fu =   5.1840E+05 -4.5368E-02 -3.5633E-02 -3.8553E-02  7.000000000000000E-01  3.000000000000000E-01
 cg2d: Sum(rhs),rhsMax =  -8.67673120852341E-13  8.55637530605071E+00
(PID.TID 0000.0001)                    cg2d_init_res =    1.07787520137925E+00
(PID.TID 0000.0001)                       cg2d_iters =    25
(PID.TID 0000.0001)                         cg2d_res =    7.21622772971746E-14
(PID.TID 0000.0001) // =======================================================
(PID.TID 0000.0001) // Begin MONITOR dynamic field statistics
(PID.TID 0000.0001) // =======================================================
(PID.TID 0000.0001) %MON time_tsnumber                =                    13
(PID.TID 0000.0001) %MON time_secondsf                =   5.6160000000000E+05
(PID.TID 0000.0001) %MON dynstat_eta_max              =   1.0471189972601E+00
(PID.TID 0000.0001) %MON dynstat_eta_min              =  -1.0888048041672E+00
(PID.TID 0000.0001) %MON dynstat_eta_mean             =   4.1373409430206E-16
(PID.TID 0000.0001) %MON dynstat_eta_sd               =   3.3571300701810E-01
(PID.TID 0000.0001) %MON dynstat_eta_del2             =   2.2916107949199E-02
(PID.TID 0000.0001) %MON dynstat_uvel_max             =   1.3304269069049E-01
(PID.TID 0000.0001) %MON dynstat_uvel_min             =  -1.3403543959510E-01
(PID.TID 0000.0001) %MON dynstat_uvel_mean            =  -9.8100817195868E-03
(PID.TID 0000.0001) %MON dynstat_uvel_sd              =   1.4957583211733E-02
(PID.TID 0000.0001) %MON dynstat_uvel_del2            =   3.3504912545298E-03
(PID.TID 0000.0001) %MON dynstat_vvel_max             =   1.1120131909269E-01
(PID.TID 0000.0001) %MON dynstat_vvel_min             =  -1.0523835073111E-01
(PID.TID 0000.0001) %MON dynstat_vvel_mean            =   4.5116791492110E-03
(PID.TID 0000.0001) %MON dynstat_vvel_sd              =   1.5020011596221E-02
(PID.TID 0000.0001) %MON dynstat_vvel_del2            =   3.4697247137443E-03
(PID.TID 0000.0001) %MON dynstat_wvel_max             =   2.5917502829837E-04
(PID.TID 0000.0001) %MON dynstat_wvel_min             =  -3.6631500664200E-04
(PID.TID 0000.0001) %MON dynstat_wvel_mean            =   1.5588850268388E-21
(PID.TID 0000.0001) %MON dynstat_wvel_sd              =   3.5497961648154E-05
(PID.TID 0000.0001) %MON dynstat_wvel_del2            =   1.2224219501923E-05
(PID.TID 0000.0001) %MON dynstat_theta_max            =   2.9558695464182E+01
(PID.TID 0000.0001) %MON dynstat_theta_min            =  -2.1411111790646E+00
(PID.TID 0000.0001) %MON dynstat_theta_mean           =   3.6005253302640E+00
(PID.TID 0000.0001) %MON dynstat_theta_sd             =   4.3737031021257E+00
(PID.TID 0000.0001) %MON dynstat_theta_del2           =   1.4220680477067E-01
(PID.TID 0000.0001) %MON dynstat_salt_max             =   3.7427745033662E+01
(PID.TID 0000.0001) %MON dynstat_salt_min             =   2.9782632836412E+01
(PID.TID 0000.0001) %MON dynstat_salt_mean            =   3.4716455755069E+01
(PID.TID 0000.0001) %MON dynstat_salt_sd              =   2.9610251903336E-01
(PID.TID 0000.0001) %MON dynstat_salt_del2            =   2.6073031711448E-02
(PID.TID 0000.0001) %MON dynstat_sst_max              =   2.9558695464182E+01
(PID.TID 0000.0001) %MON dynstat_sst_min              =  -1.9030367378852E+00
(PID.TID 0000.0001) %MON dynstat_sst_mean             =   1.8481761108874E+01
(PID.TID 0000.0001) %MON dynstat_sst_sd               =   9.0131590140841E+00
(PID.TID 0000.0001) %MON dynstat_sst_del2             =   2.7361038754789E-01
(PID.TID 0000.0001) %MON dynstat_sss_max              =   3.7427745033662E+01
(PID.TID 0000.0001) %MON dynstat_sss_min              =   2.9782632836412E+01
(PID.TID 0000.0001) %MON dynstat_sss_mean             =   3.4846936275732E+01
(PID.TID 0000.0001) %MON dynstat_sss_sd               =   9.6792556506044E-01
(PID.TID 0000.0001) %MON dynstat_sss_del2             =   8.2989869988445E-02
(PID.TID 0000.0001) %MON extforcing_qnet_max          =   4.3217993164062E+02
(PID.TID 0000.0001) %MON extforcing_qnet_min          =  -1.8422400970459E+02
(PID.TID 0000.0001) %MON extforcing_qnet_mean         =  -1.6625133603451E+01
(PID.TID 0000.0001) %MON extforcing_qnet_sd           =   1.1159198929743E+02
(PID.TID 0000.0001) %MON extforcing_qnet_del2         =   9.5132681531629E+00
(PID.TID 0000.0001) %MON extforcing_qsw_max           =   0.0000000000000E+00
(PID.TID 0000.0001) %MON extforcing_qsw_min           =   0.0000000000000E+00
(PID.TID 0000.0001) %MON extforcing_qsw_mean          =   0.0000000000000E+00
(PID.TID 0000.0001) %MON extforcing_qsw_sd            =   0.0000000000000E+00
(PID.TID 0000.0001) %MON extforcing_qsw_del2          =   0.0000000000000E+00
(PID.TID 0000.0001) %MON extforcing_empmr_max         =   0.0000000000000E+00
(PID.TID 0000.0001) %MON extforcing_empmr_min         =   0.0000000000000E+00
(PID.TID 0000.0001) %MON extforcing_empmr_mean        =   0.0000000000000E+00
(PID.TID 0000.0001) %MON extforcing_empmr_sd          =   0.0000000000000E+00
(PID.TID 0000.0001) %MON extforcing_empmr_del2        =   0.0000000000000E+00
(PID.TID 0000.0001) %MON extforcing_fu_max            =   2.6977391839027E-01
(PID.TID 0000.0001) %MON extforcing_fu_min            =  -1.6355978995562E-01
(PID.TID 0000.0001) %MON extforcing_fu_mean           =   1.6070970541901E-02
(PID.TID 0000.0001) %MON extforcing_fu_sd             =   9.0225339362360E-02
(PID.TID 0000.0001) %MON extforcing_fu_del2           =   7.3810684217543E-03
(PID.TID 0000.0001) %MON extforcing_fv_max            =   2.1620217412710E-01
(PID.TID 0000.0001) %MON extforcing_fv_min            =  -1.8339881747961E-01
(PID.TID 0000.0001) %MON extforcing_fv_mean           =  -5.9227604812523E-03
(PID.TID 0000.0001) %MON extforcing_fv_sd             =   4.6005326854092E-02
(PID.TID 0000.0001) %MON extforcing_fv_del2           =   4.4065694167007E-03
(PID.TID 0000.0001) %MON advcfl_uvel_max              =   2.4446869026557E-02
(PID.TID 0000.0001) %MON advcfl_vvel_max              =   1.0802316422484E-02
(PID.TID 0000.0001) %MON advcfl_wvel_max              =   2.0206527788023E-01
(PID.TID 0000.0001) %MON advcfl_W_hf_max              =   1.7744750156407E-01
(PID.TID 0000.0001) %MON pe_b_mean                    =   1.4421735837083E-04
(PID.TID 0000.0001) %MON ke_max                       =   9.3841569810512E-03
(PID.TID 0000.0001) %MON ke_mean                      =   2.5578627940042E-04
(PID.TID 0000.0001) %MON ke_vol                       =   1.3226782436723E+18
(PID.TID 0000.0001) %MON vort_r_min                   =  -3.3397756376079E-07
(PID.TID 0000.0001) %MON vort_r_max                   =   6.2017889547835E-07
(PID.TID 0000.0001) %MON vort_a_mean                  =  -2.5205769771521E-05
(PID.TID 0000.0001) %MON vort_a_sd                    =   7.3401404715253E-05
(PID.TID 0000.0001) %MON vort_p_mean                  =  -3.1758670033843E-05
(PID.TID 0000.0001) %MON vort_p_sd                    =   1.3126037660669E-04
(PID.TID 0000.0001) %MON surfExpan_theta_mean         =   1.2915976061905E-04
(PID.TID 0000.0001) %MON surfExpan_salt_mean          =   8.8105848284392E-06
(PID.TID 0000.0001) // =======================================================
(PID.TID 0000.0001) // End MONITOR dynamic field statistics
(PID.TID 0000.0001) // =======================================================
time,SST,SSS,fu,fv,Q,E-P,i0,i1,a,b =   5.6160E+05  4.4544E-01  3.4516E+01 -3.8391E-02 -6.0938E-02  2.6539E+02  0.0000E+00    12     1  7.1667E-01  2.8333E-01
time,fu0,fu1,fu =   5.6160E+05 -4.5368E-02 -3.5633E-02 -3.8391E-02  7.166666666666667E-01  2.833333333333333E-01
 cg2d: Sum(rhs),rhsMax =  -9.53523718316696E-13  9.25214403713223E+00
(PID.TID 0000.0001)                    cg2d_init_res =    9.64939505688051E-01
(PID.TID 0000.0001)                       cg2d_iters =    25
(PID.TID 0000.0001)                         cg2d_res =    6.15144998305424E-14
(PID.TID 0000.0001) // =======================================================
(PID.TID 0000.0001) // Begin MONITOR dynamic field statistics
(PID.TID 0000.0001) // =======================================================
(PID.TID 0000.0001) %MON time_tsnumber                =                    14
(PID.TID 0000.0001) %MON time_secondsf                =   6.0480000000000E+05
(PID.TID 0000.0001) %MON dynstat_eta_max              =   1.1180503938821E+00
(PID.TID 0000.0001) %MON dynstat_eta_min              =  -1.1570573748408E+00
(PID.TID 0000.0001) %MON dynstat_eta_mean             =   7.6396577855753E-16
(PID.TID 0000.0001) %MON dynstat_eta_sd               =   3.4917351504943E-01
(PID.TID 0000.0001) %MON dynstat_eta_del2             =   2.2237286914898E-02
(PID.TID 0000.0001) %MON dynstat_uvel_max             =   1.4013815004777E-01
(PID.TID 0000.0001) %MON dynstat_uvel_min             =  -1.2966547186867E-01
(PID.TID 0000.0001) %MON dynstat_uvel_mean            =  -1.0172085278028E-02
(PID.TID 0000.0001) %MON dynstat_uvel_sd              =   1.5809340529532E-02
(PID.TID 0000.0001) %MON dynstat_uvel_del2            =   3.4418184420955E-03
(PID.TID 0000.0001) %MON dynstat_vvel_max             =   1.2328404585969E-01
(PID.TID 0000.0001) %MON dynstat_vvel_min             =  -1.0518985156181E-01
(PID.TID 0000.0001) %MON dynstat_vvel_mean            =   4.1724119477102E-03
(PID.TID 0000.0001) %MON dynstat_vvel_sd              =   1.4713978839214E-02
(PID.TID 0000.0001) %MON dynstat_vvel_del2            =   3.4883281078749E-03
(PID.TID 0000.0001) %MON dynstat_wvel_max             =   2.5696919276139E-04
(PID.TID 0000.0001) %MON dynstat_wvel_min             =  -3.6852452088438E-04
(PID.TID 0000.0001) %MON dynstat_wvel_mean            =   1.1943255745321E-22
(PID.TID 0000.0001) %MON dynstat_wvel_sd              =   3.4559150864757E-05
(PID.TID 0000.0001) %MON dynstat_wvel_del2            =   1.1838356482859E-05
(PID.TID 0000.0001) %MON dynstat_theta_max            =   2.9559667123949E+01
(PID.TID 0000.0001) %MON dynstat_theta_min            =  -2.1443197900637E+00
(PID.TID 0000.0001) %MON dynstat_theta_mean           =   3.5991922696141E+00
(PID.TID 0000.0001) %MON dynstat_theta_sd             =   4.3698547469293E+00
(PID.TID 0000.0001) %MON dynstat_theta_del2           =   1.4178407330658E-01
(PID.TID 0000.0001) %MON dynstat_salt_max             =   3.7427012539368E+01
(PID.TID 0000.0001) %MON dynstat_salt_min             =   2.9783108830369E+01
(PID.TID 0000.0001) %MON dynstat_salt_mean            =   3.4716365515410E+01
(PID.TID 0000.0001) %MON dynstat_salt_sd              =   2.9606982019809E-01
(PID.TID 0000.0001) %MON dynstat_salt_del2            =   2.6058890692204E-02
(PID.TID 0000.0001) %MON dynstat_sst_max              =   2.9559667123949E+01
(PID.TID 0000.0001) %MON dynstat_sst_min              =  -1.9035689592502E+00
(PID.TID 0000.0001) %MON dynstat_sst_mean             =   1.8481829978376E+01
(PID.TID 0000.0001) %MON dynstat_sst_sd               =   8.9986544525796E+00
(PID.TID 0000.0001) %MON dynstat_sst_del2             =   2.7394917696297E-01
(PID.TID 0000.0001) %MON dynstat_sss_max              =   3.7427012539368E+01
(PID.TID 0000.0001) %MON dynstat_sss_min              =   2.9783108830369E+01
(PID.TID 0000.0001) %MON dynstat_sss_mean             =   3.4847177624803E+01
(PID.TID 0000.0001) %MON dynstat_sss_sd               =   9.6819467774895E-01
(PID.TID 0000.0001) %MON dynstat_sss_del2             =   8.2926914990231E-02
(PID.TID 0000.0001) %MON extforcing_qnet_max          =   4.3270402526855E+02
(PID.TID 0000.0001) %MON extforcing_qnet_min          =  -1.8399042841593E+02
(PID.TID 0000.0001) %MON extforcing_qnet_mean         =  -1.6618877625540E+01
(PID.TID 0000.0001) %MON extforcing_qnet_sd           =   1.1149081697469E+02
(PID.TID 0000.0001) %MON extforcing_qnet_del2         =   9.5179983091604E+00
(PID.TID 0000.0001) %MON extforcing_qsw_max           =   0.0000000000000E+00
(PID.TID 0000.0001) %MON extforcing_qsw_min           =   0.0000000000000E+00
(PID.TID 0000.0001) %MON extforcing_qsw_mean          =   0.0000000000000E+00
(PID.TID 0000.0001) %MON extforcing_qsw_sd            =   0.0000000000000E+00
(PID.TID 0000.0001) %MON extforcing_qsw_del2          =   0.0000000000000E+00
(PID.TID 0000.0001) %MON extforcing_empmr_max         =   0.0000000000000E+00
(PID.TID 0000.0001) %MON extforcing_empmr_min         =   0.0000000000000E+00
(PID.TID 0000.0001) %MON extforcing_empmr_mean        =   0.0000000000000E+00
(PID.TID 0000.0001) %MON extforcing_empmr_sd          =   0.0000000000000E+00
(PID.TID 0000.0001) %MON extforcing_empmr_del2        =   0.0000000000000E+00
(PID.TID 0000.0001) %MON extforcing_fu_max            =   2.6981456279755E-01
(PID.TID 0000.0001) %MON extforcing_fu_min            =  -1.6396650001407E-01
(PID.TID 0000.0001) %MON extforcing_fu_mean           =   1.6067124131382E-02
(PID.TID 0000.0001) %MON extforcing_fu_sd             =   9.0248987352032E-02
(PID.TID 0000.0001) %MON extforcing_fu_del2           =   7.3877407327441E-03
(PID.TID 0000.0001) %MON extforcing_fv_max            =   2.1714212670922E-01
(PID.TID 0000.0001) %MON extforcing_fv_min            =  -1.8310648873448E-01
(PID.TID 0000.0001) %MON extforcing_fv_mean           =  -5.8858792178219E-03
(PID.TID 0000.0001) %MON extforcing_fv_sd             =   4.6100199750737E-02
(PID.TID 0000.0001) %MON extforcing_fv_del2           =   4.4209158240490E-03
(PID.TID 0000.0001) %MON advcfl_uvel_max              =   2.6815121887161E-02
(PID.TID 0000.0001) %MON advcfl_vvel_max              =   1.1976056436079E-02
(PID.TID 0000.0001) %MON advcfl_wvel_max              =   1.8735610109659E-01
(PID.TID 0000.0001) %MON advcfl_W_hf_max              =   1.6540375425008E-01
(PID.TID 0000.0001) %MON pe_b_mean                    =   1.5601407837262E-04
(PID.TID 0000.0001) %MON ke_max                       =   1.0432062406776E-02
(PID.TID 0000.0001) %MON ke_mean                      =   2.6557049233498E-04
(PID.TID 0000.0001) %MON ke_vol                       =   1.3226782436723E+18
(PID.TID 0000.0001) %MON vort_r_min                   =  -3.4697579070362E-07
(PID.TID 0000.0001) %MON vort_r_max                   =   6.1832836036361E-07
(PID.TID 0000.0001) %MON vort_a_mean                  =  -2.5205769775600E-05
(PID.TID 0000.0001) %MON vort_a_sd                    =   7.3401327955688E-05
(PID.TID 0000.0001) %MON vort_p_mean                  =  -3.1758670038983E-05
(PID.TID 0000.0001) %MON vort_p_sd                    =   1.3126004716115E-04
(PID.TID 0000.0001) %MON surfExpan_theta_mean         =   1.1562669582379E-04
(PID.TID 0000.0001) %MON surfExpan_salt_mean          =   7.4164290480247E-06
(PID.TID 0000.0001) // =======================================================
(PID.TID 0000.0001) // End MONITOR dynamic field statistics
(PID.TID 0000.0001) // =======================================================
time,SST,SSS,fu,fv,Q,E-P,i0,i1,a,b =   6.0480E+05  4.7561E-01  3.4527E+01 -3.8229E-02 -6.0721E-02  2.6541E+02  0.0000E+00    12     1  7.3333E-01  2.6667E-01
time,fu0,fu1,fu =   6.0480E+05 -4.5368E-02 -3.5633E-02 -3.8229E-02  7.333333333333333E-01  2.666666666666667E-01
 cg2d: Sum(rhs),rhsMax =  -8.17099859995452E-13  9.75412758742914E+00
(PID.TID 0000.0001)                    cg2d_init_res =    8.90329620739272E-01
(PID.TID 0000.0001)                       cg2d_iters =    25
(PID.TID 0000.0001)                         cg2d_res =    5.29434837130141E-14
(PID.TID 0000.0001) // =======================================================
(PID.TID 0000.0001) // Begin MONITOR dynamic field statistics
(PID.TID 0000.0001) // =======================================================
(PID.TID 0000.0001) %MON time_tsnumber                =                    15
(PID.TID 0000.0001) %MON time_secondsf                =   6.4800000000000E+05
(PID.TID 0000.0001) %MON dynstat_eta_max              =   1.1768263831189E+00
(PID.TID 0000.0001) %MON dynstat_eta_min              =  -1.1922731830871E+00
(PID.TID 0000.0001) %MON dynstat_eta_mean             =   5.7789474920315E-16
(PID.TID 0000.0001) %MON dynstat_eta_sd               =   3.6012807519694E-01
(PID.TID 0000.0001) %MON dynstat_eta_del2             =   2.1663633244702E-02
(PID.TID 0000.0001) %MON dynstat_uvel_max             =   1.4992543061743E-01
(PID.TID 0000.0001) %MON dynstat_uvel_min             =  -1.3081371122469E-01
(PID.TID 0000.0001) %MON dynstat_uvel_mean            =  -1.0385531192500E-02
(PID.TID 0000.0001) %MON dynstat_uvel_sd              =   1.6541496551569E-02
(PID.TID 0000.0001) %MON dynstat_uvel_del2            =   3.5151959699882E-03
(PID.TID 0000.0001) %MON dynstat_vvel_max             =   1.3649740937867E-01
(PID.TID 0000.0001) %MON dynstat_vvel_min             =  -1.0651565080729E-01
(PID.TID 0000.0001) %MON dynstat_vvel_mean            =   3.8045871911198E-03
(PID.TID 0000.0001) %MON dynstat_vvel_sd              =   1.4411807016810E-02
(PID.TID 0000.0001) %MON dynstat_vvel_del2            =   3.4888748603740E-03
(PID.TID 0000.0001) %MON dynstat_wvel_max             =   2.5386160233479E-04
(PID.TID 0000.0001) %MON dynstat_wvel_min             =  -3.6420840465101E-04
(PID.TID 0000.0001) %MON dynstat_wvel_mean            =   3.0391422820338E-23
(PID.TID 0000.0001) %MON dynstat_wvel_sd              =   3.3458779029641E-05
(PID.TID 0000.0001) %MON dynstat_wvel_del2            =   1.1357664807521E-05
(PID.TID 0000.0001) %MON dynstat_theta_max            =   2.9549442205722E+01
(PID.TID 0000.0001) %MON dynstat_theta_min            =  -2.1393586403886E+00
(PID.TID 0000.0001) %MON dynstat_theta_mean           =   3.5980195622920E+00
(PID.TID 0000.0001) %MON dynstat_theta_sd             =   4.3662303871161E+00
(PID.TID 0000.0001) %MON dynstat_theta_del2           =   1.4140089950034E-01
(PID.TID 0000.0001) %MON dynstat_salt_max             =   3.7427289322038E+01
(PID.TID 0000.0001) %MON dynstat_salt_min             =   2.9783204890649E+01
(PID.TID 0000.0001) %MON dynstat_salt_mean            =   3.4716291394502E+01
(PID.TID 0000.0001) %MON dynstat_salt_sd              =   2.9603448107341E-01
(PID.TID 0000.0001) %MON dynstat_salt_del2            =   2.6046990821000E-02
(PID.TID 0000.0001) %MON dynstat_sst_max              =   2.9549442205722E+01
(PID.TID 0000.0001) %MON dynstat_sst_min              =  -1.9040805721900E+00
(PID.TID 0000.0001) %MON dynstat_sst_mean             =   1.8482092288530E+01
(PID.TID 0000.0001) %MON dynstat_sst_sd               =   8.9851599728524E+00
(PID.TID 0000.0001) %MON dynstat_sst_del2             =   2.7401554589104E-01
(PID.TID 0000.0001) %MON dynstat_sss_max              =   3.7427289322038E+01
(PID.TID 0000.0001) %MON dynstat_sss_min              =   2.9783204890649E+01
(PID.TID 0000.0001) %MON dynstat_sss_mean             =   3.4847538047017E+01
(PID.TID 0000.0001) %MON dynstat_sss_sd               =   9.6835374611237E-01
(PID.TID 0000.0001) %MON dynstat_sss_del2             =   8.2787091931615E-02
(PID.TID 0000.0001) %MON extforcing_qnet_max          =   4.3322811889648E+02
(PID.TID 0000.0001) %MON extforcing_qnet_min          =  -1.8375684712728E+02
(PID.TID 0000.0001) %MON extforcing_qnet_mean         =  -1.6612621647629E+01
(PID.TID 0000.0001) %MON extforcing_qnet_sd           =   1.1139030190430E+02
(PID.TID 0000.0001) %MON extforcing_qnet_del2         =   9.5233734793557E+00
(PID.TID 0000.0001) %MON extforcing_qsw_max           =   0.0000000000000E+00
(PID.TID 0000.0001) %MON extforcing_qsw_min           =   0.0000000000000E+00
(PID.TID 0000.0001) %MON extforcing_qsw_mean          =   0.0000000000000E+00
(PID.TID 0000.0001) %MON extforcing_qsw_sd            =   0.0000000000000E+00
(PID.TID 0000.0001) %MON extforcing_qsw_del2          =   0.0000000000000E+00
(PID.TID 0000.0001) %MON extforcing_empmr_max         =   0.0000000000000E+00
(PID.TID 0000.0001) %MON extforcing_empmr_min         =   0.0000000000000E+00
(PID.TID 0000.0001) %MON extforcing_empmr_mean        =   0.0000000000000E+00
(PID.TID 0000.0001) %MON extforcing_empmr_sd          =   0.0000000000000E+00
(PID.TID 0000.0001) %MON extforcing_empmr_del2        =   0.0000000000000E+00
(PID.TID 0000.0001) %MON extforcing_fu_max            =   2.6985520720482E-01
(PID.TID 0000.0001) %MON extforcing_fu_min            =  -1.6437321007252E-01
(PID.TID 0000.0001) %MON extforcing_fu_mean           =   1.6063277720863E-02
(PID.TID 0000.0001) %MON extforcing_fu_sd             =   9.0275341241088E-02
(PID.TID 0000.0001) %MON extforcing_fu_del2           =   7.3960599965135E-03
(PID.TID 0000.0001) %MON extforcing_fv_max            =   2.1808207929134E-01
(PID.TID 0000.0001) %MON extforcing_fv_min            =  -1.8281415998936E-01
(PID.TID 0000.0001) %MON extforcing_fv_mean           =  -5.8489979543916E-03
(PID.TID 0000.0001) %MON extforcing_fv_sd             =   4.6198708258185E-02
(PID.TID 0000.0001) %MON extforcing_fv_del2           =   4.4368253517913E-03
(PID.TID 0000.0001) %MON advcfl_uvel_max              =   2.7838314652706E-02
(PID.TID 0000.0001) %MON advcfl_vvel_max              =   1.3259628743511E-02
(PID.TID 0000.0001) %MON advcfl_wvel_max              =   1.5766467284531E-01
(PID.TID 0000.0001) %MON advcfl_W_hf_max              =   1.3991277817473E-01
(PID.TID 0000.0001) %MON pe_b_mean                    =   1.6595684115407E-04
(PID.TID 0000.0001) %MON ke_max                       =   1.1420333487115E-02
(PID.TID 0000.0001) %MON ke_mean                      =   2.7305643005749E-04
(PID.TID 0000.0001) %MON ke_vol                       =   1.3226782436723E+18
(PID.TID 0000.0001) %MON vort_r_min                   =  -3.7111316739463E-07
(PID.TID 0000.0001) %MON vort_r_max                   =   5.9968305932766E-07
(PID.TID 0000.0001) %MON vort_a_mean                  =  -2.5205769754075E-05
(PID.TID 0000.0001) %MON vort_a_sd                    =   7.3401278001348E-05
(PID.TID 0000.0001) %MON vort_p_mean                  =  -3.1758670011862E-05
(PID.TID 0000.0001) %MON vort_p_sd                    =   1.3125982840101E-04
(PID.TID 0000.0001) %MON surfExpan_theta_mean         =   1.0140726549569E-04
(PID.TID 0000.0001) %MON surfExpan_salt_mean          =   6.0022771421700E-06
(PID.TID 0000.0001) // =======================================================
(PID.TID 0000.0001) // End MONITOR dynamic field statistics
(PID.TID 0000.0001) // =======================================================
time,SST,SSS,fu,fv,Q,E-P,i0,i1,a,b =   6.4800E+05  5.0579E-01  3.4539E+01 -3.8067E-02 -6.0505E-02  2.6543E+02  0.0000E+00    12     1  7.5000E-01  2.5000E-01
time,fu0,fu1,fu =   6.4800E+05 -4.5368E-02 -3.5633E-02 -3.8067E-02  7.500000000000000E-01  2.500000000000000E-01
 cg2d: Sum(rhs),rhsMax =  -7.44133921148915E-13  1.00472791850534E+01
(PID.TID 0000.0001)                    cg2d_init_res =    8.45078603613794E-01
(PID.TID 0000.0001)                       cg2d_iters =    25
(PID.TID 0000.0001)                         cg2d_res =    4.56043035316572E-14
(PID.TID 0000.0001) // =======================================================
(PID.TID 0000.0001) // Begin MONITOR dynamic field statistics
(PID.TID 0000.0001) // =======================================================
(PID.TID 0000.0001) %MON time_tsnumber                =                    16
(PID.TID 0000.0001) %MON time_secondsf                =   6.9120000000000E+05
(PID.TID 0000.0001) %MON dynstat_eta_max              =   1.2111396057374E+00
(PID.TID 0000.0001) %MON dynstat_eta_min              =  -1.1855143107630E+00
(PID.TID 0000.0001) %MON dynstat_eta_mean             =   6.0498953533985E-16
(PID.TID 0000.0001) %MON dynstat_eta_sd               =   3.6866937882312E-01
(PID.TID 0000.0001) %MON dynstat_eta_del2             =   2.1184086379794E-02
(PID.TID 0000.0001) %MON dynstat_uvel_max             =   1.5882954447963E-01
(PID.TID 0000.0001) %MON dynstat_uvel_min             =  -1.3183776875316E-01
(PID.TID 0000.0001) %MON dynstat_uvel_mean            =  -1.0451498101914E-02
(PID.TID 0000.0001) %MON dynstat_uvel_sd              =   1.7155381654744E-02
(PID.TID 0000.0001) %MON dynstat_uvel_del2            =   3.5735969134168E-03
(PID.TID 0000.0001) %MON dynstat_vvel_max             =   1.4663358843264E-01
(PID.TID 0000.0001) %MON dynstat_vvel_min             =  -1.0862460507518E-01
(PID.TID 0000.0001) %MON dynstat_vvel_mean            =   3.4309269730244E-03
(PID.TID 0000.0001) %MON dynstat_vvel_sd              =   1.4144726973413E-02
(PID.TID 0000.0001) %MON dynstat_vvel_del2            =   3.4750542133137E-03
(PID.TID 0000.0001) %MON dynstat_wvel_max             =   2.6143667610367E-04
(PID.TID 0000.0001) %MON dynstat_wvel_min             =  -3.5644665192145E-04
(PID.TID 0000.0001) %MON dynstat_wvel_mean            =  -1.8143392712206E-22
(PID.TID 0000.0001) %MON dynstat_wvel_sd              =   3.2270364953520E-05
(PID.TID 0000.0001) %MON dynstat_wvel_del2            =   1.0821748673251E-05
(PID.TID 0000.0001) %MON dynstat_theta_max            =   2.9526627674516E+01
(PID.TID 0000.0001) %MON dynstat_theta_min            =  -2.1273055663796E+00
(PID.TID 0000.0001) %MON dynstat_theta_mean           =   3.5970121280633E+00
(PID.TID 0000.0001) %MON dynstat_theta_sd             =   4.3628685442451E+00
(PID.TID 0000.0001) %MON dynstat_theta_del2           =   1.4107443446097E-01
(PID.TID 0000.0001) %MON dynstat_salt_max             =   3.7427453921148E+01
(PID.TID 0000.0001) %MON dynstat_salt_min             =   2.9782988062595E+01
(PID.TID 0000.0001) %MON dynstat_salt_mean            =   3.4716233334558E+01
(PID.TID 0000.0001) %MON dynstat_salt_sd              =   2.9599782971870E-01
(PID.TID 0000.0001) %MON dynstat_salt_del2            =   2.6042080029079E-02
(PID.TID 0000.0001) %MON dynstat_sst_max              =   2.9526627674516E+01
(PID.TID 0000.0001) %MON dynstat_sst_min              =  -1.9045530426591E+00
(PID.TID 0000.0001) %MON dynstat_sst_mean             =   1.8482890056066E+01
(PID.TID 0000.0001) %MON dynstat_sst_sd               =   8.9724708806031E+00
(PID.TID 0000.0001) %MON dynstat_sst_del2             =   2.7396949534971E-01
(PID.TID 0000.0001) %MON dynstat_sss_max              =   3.7427453921148E+01
(PID.TID 0000.0001) %MON dynstat_sss_min              =   2.9782988062595E+01
(PID.TID 0000.0001) %MON dynstat_sss_mean             =   3.4848065022286E+01
(PID.TID 0000.0001) %MON dynstat_sss_sd               =   9.6844238531294E-01
(PID.TID 0000.0001) %MON dynstat_sss_del2             =   8.2632432184616E-02
(PID.TID 0000.0001) %MON extforcing_qnet_max          =   4.3375221252441E+02
(PID.TID 0000.0001) %MON extforcing_qnet_min          =  -1.8352326583862E+02
(PID.TID 0000.0001) %MON extforcing_qnet_mean         =  -1.6606365669717E+01
(PID.TID 0000.0001) %MON extforcing_qnet_sd           =   1.1129044586711E+02
(PID.TID 0000.0001) %MON extforcing_qnet_del2         =   9.5291711143104E+00
(PID.TID 0000.0001) %MON extforcing_qsw_max           =   0.0000000000000E+00
(PID.TID 0000.0001) %MON extforcing_qsw_min           =   0.0000000000000E+00
(PID.TID 0000.0001) %MON extforcing_qsw_mean          =   0.0000000000000E+00
(PID.TID 0000.0001) %MON extforcing_qsw_sd            =   0.0000000000000E+00
(PID.TID 0000.0001) %MON extforcing_qsw_del2          =   0.0000000000000E+00
(PID.TID 0000.0001) %MON extforcing_empmr_max         =   0.0000000000000E+00
(PID.TID 0000.0001) %MON extforcing_empmr_min         =   0.0000000000000E+00
(PID.TID 0000.0001) %MON extforcing_empmr_mean        =   0.0000000000000E+00
(PID.TID 0000.0001) %MON extforcing_empmr_sd          =   0.0000000000000E+00
(PID.TID 0000.0001) %MON extforcing_empmr_del2        =   0.0000000000000E+00
(PID.TID 0000.0001) %MON extforcing_fu_max            =   2.6989585161209E-01
(PID.TID 0000.0001) %MON extforcing_fu_min            =  -1.6477992013097E-01
(PID.TID 0000.0001) %MON extforcing_fu_mean           =   1.6059431310345E-02
(PID.TID 0000.0001) %MON extforcing_fu_sd             =   9.0304398660509E-02
(PID.TID 0000.0001) %MON extforcing_fu_del2           =   7.4057201441639E-03
(PID.TID 0000.0001) %MON extforcing_fv_max            =   2.1902203187346E-01
(PID.TID 0000.0001) %MON extforcing_fv_min            =  -1.8252183124423E-01
(PID.TID 0000.0001) %MON extforcing_fv_mean           =  -5.8121166909612E-03
(PID.TID 0000.0001) %MON extforcing_fv_sd             =   4.6300829171334E-02
(PID.TID 0000.0001) %MON extforcing_fv_del2           =   4.4537951403146E-03
(PID.TID 0000.0001) %MON advcfl_uvel_max              =   2.7278065424229E-02
(PID.TID 0000.0001) %MON advcfl_vvel_max              =   1.4244277256221E-02
(PID.TID 0000.0001) %MON advcfl_wvel_max              =   1.6533548109045E-01
(PID.TID 0000.0001) %MON advcfl_W_hf_max              =   1.3744389483648E-01
(PID.TID 0000.0001) %MON pe_b_mean                    =   1.7392232584742E-04
(PID.TID 0000.0001) %MON ke_max                       =   1.2330424620975E-02
(PID.TID 0000.0001) %MON ke_mean                      =   2.7844106276619E-04
(PID.TID 0000.0001) %MON ke_vol                       =   1.3226782436723E+18
(PID.TID 0000.0001) %MON vort_r_min                   =  -3.9181642600131E-07
(PID.TID 0000.0001) %MON vort_r_max                   =   5.6526218696275E-07
(PID.TID 0000.0001) %MON vort_a_mean                  =  -2.5205769711726E-05
(PID.TID 0000.0001) %MON vort_a_sd                    =   7.3401255030934E-05
(PID.TID 0000.0001) %MON vort_p_mean                  =  -3.1758669958503E-05
(PID.TID 0000.0001) %MON vort_p_sd                    =   1.3125972386480E-04
(PID.TID 0000.0001) %MON surfExpan_theta_mean         =   8.6900792869180E-05
(PID.TID 0000.0001) %MON surfExpan_salt_mean          =   4.6091620213274E-06
(PID.TID 0000.0001) // =======================================================
(PID.TID 0000.0001) // End MONITOR dynamic field statistics
(PID.TID 0000.0001) // =======================================================
time,SST,SSS,fu,fv,Q,E-P,i0,i1,a,b =   6.9120E+05  5.3596E-01  3.4551E+01 -3.7904E-02 -6.0288E-02  2.6546E+02  0.0000E+00    12     1  7.6667E-01  2.3333E-01
time,fu0,fu1,fu =   6.9120E+05 -4.5368E-02 -3.5633E-02 -3.7904E-02  7.666666666666667E-01  2.333333333333333E-01
 cg2d: Sum(rhs),rhsMax =  -1.08077782834393E-12  1.01282964952820E+01
(PID.TID 0000.0001)                    cg2d_init_res =    8.22936604547320E-01
(PID.TID 0000.0001)                       cg2d_iters =    24
(PID.TID 0000.0001)                         cg2d_res =    6.95810083019300E-14
(PID.TID 0000.0001) // =======================================================
(PID.TID 0000.0001) // Begin MONITOR dynamic field statistics
(PID.TID 0000.0001) // =======================================================
(PID.TID 0000.0001) %MON time_tsnumber                =                    17
(PID.TID 0000.0001) %MON time_secondsf                =   7.3440000000000E+05
(PID.TID 0000.0001) %MON dynstat_eta_max              =   1.2207313086177E+00
(PID.TID 0000.0001) %MON dynstat_eta_min              =  -1.1613286715386E+00
(PID.TID 0000.0001) %MON dynstat_eta_mean             =   3.6278676925340E-16
(PID.TID 0000.0001) %MON dynstat_eta_sd               =   3.7496062848819E-01
(PID.TID 0000.0001) %MON dynstat_eta_del2             =   2.0740054843849E-02
(PID.TID 0000.0001) %MON dynstat_uvel_max             =   1.6668627816631E-01
(PID.TID 0000.0001) %MON dynstat_uvel_min             =  -1.2975307452297E-01
(PID.TID 0000.0001) %MON dynstat_uvel_mean            =  -1.0376380989084E-02
(PID.TID 0000.0001) %MON dynstat_uvel_sd              =   1.7655892991451E-02
(PID.TID 0000.0001) %MON dynstat_uvel_del2            =   3.6198078987631E-03
(PID.TID 0000.0001) %MON dynstat_vvel_max             =   1.5289421370580E-01
(PID.TID 0000.0001) %MON dynstat_vvel_min             =  -1.0902009373737E-01
(PID.TID 0000.0001) %MON dynstat_vvel_mean            =   3.0724457629894E-03
(PID.TID 0000.0001) %MON dynstat_vvel_sd              =   1.3932255936464E-02
(PID.TID 0000.0001) %MON dynstat_vvel_del2            =   3.4544902090190E-03
(PID.TID 0000.0001) %MON dynstat_wvel_max             =   2.6674060820387E-04
(PID.TID 0000.0001) %MON dynstat_wvel_min             =  -3.4574825378747E-04
(PID.TID 0000.0001) %MON dynstat_wvel_mean            =   4.7448967267673E-22
(PID.TID 0000.0001) %MON dynstat_wvel_sd              =   3.1062553268795E-05
(PID.TID 0000.0001) %MON dynstat_wvel_del2            =   1.0270883364675E-05
(PID.TID 0000.0001) %MON dynstat_theta_max            =   2.9491066905136E+01
(PID.TID 0000.0001) %MON dynstat_theta_min            =  -2.1090306435020E+00
(PID.TID 0000.0001) %MON dynstat_theta_mean           =   3.5961704251956E+00
(PID.TID 0000.0001) %MON dynstat_theta_sd             =   4.3598052564567E+00
(PID.TID 0000.0001) %MON dynstat_theta_del2           =   1.4078766953548E-01
(PID.TID 0000.0001) %MON dynstat_salt_max             =   3.7427535679305E+01
(PID.TID 0000.0001) %MON dynstat_salt_min             =   2.9782540023693E+01
(PID.TID 0000.0001) %MON dynstat_salt_mean            =   3.4716190813959E+01
(PID.TID 0000.0001) %MON dynstat_salt_sd              =   2.9596142080219E-01
(PID.TID 0000.0001) %MON dynstat_salt_del2            =   2.6045550353670E-02
(PID.TID 0000.0001) %MON dynstat_sst_max              =   2.9491066905136E+01
(PID.TID 0000.0001) %MON dynstat_sst_min              =  -1.9049764182299E+00
(PID.TID 0000.0001) %MON dynstat_sst_mean             =   1.8484134195189E+01
(PID.TID 0000.0001) %MON dynstat_sst_sd               =   8.9609068378001E+00
(PID.TID 0000.0001) %MON dynstat_sst_del2             =   2.7414772721071E-01
(PID.TID 0000.0001) %MON dynstat_sss_max              =   3.7427535679305E+01
(PID.TID 0000.0001) %MON dynstat_sss_min              =   2.9782540023693E+01
(PID.TID 0000.0001) %MON dynstat_sss_mean             =   3.4848758930655E+01
(PID.TID 0000.0001) %MON dynstat_sss_sd               =   9.6850945934131E-01
(PID.TID 0000.0001) %MON dynstat_sss_del2             =   8.2591179004102E-02
(PID.TID 0000.0001) %MON extforcing_qnet_max          =   4.3427630615234E+02
(PID.TID 0000.0001) %MON extforcing_qnet_min          =  -1.8328968454997E+02
(PID.TID 0000.0001) %MON extforcing_qnet_mean         =  -1.6600109691805E+01
(PID.TID 0000.0001) %MON extforcing_qnet_sd           =   1.1119125063866E+02
(PID.TID 0000.0001) %MON extforcing_qnet_del2         =   9.5355422152042E+00
(PID.TID 0000.0001) %MON extforcing_qsw_max           =   0.0000000000000E+00
(PID.TID 0000.0001) %MON extforcing_qsw_min           =   0.0000000000000E+00
(PID.TID 0000.0001) %MON extforcing_qsw_mean          =   0.0000000000000E+00
(PID.TID 0000.0001) %MON extforcing_qsw_sd            =   0.0000000000000E+00
(PID.TID 0000.0001) %MON extforcing_qsw_del2          =   0.0000000000000E+00
(PID.TID 0000.0001) %MON extforcing_empmr_max         =   0.0000000000000E+00
(PID.TID 0000.0001) %MON extforcing_empmr_min         =   0.0000000000000E+00
(PID.TID 0000.0001) %MON extforcing_empmr_mean        =   0.0000000000000E+00
(PID.TID 0000.0001) %MON extforcing_empmr_sd          =   0.0000000000000E+00
(PID.TID 0000.0001) %MON extforcing_empmr_del2        =   0.0000000000000E+00
(PID.TID 0000.0001) %MON extforcing_fu_max            =   2.6993649601936E-01
(PID.TID 0000.0001) %MON extforcing_fu_min            =  -1.6518663018942E-01
(PID.TID 0000.0001) %MON extforcing_fu_mean           =   1.6055584899826E-02
(PID.TID 0000.0001) %MON extforcing_fu_sd             =   9.0336157001452E-02
(PID.TID 0000.0001) %MON extforcing_fu_del2           =   7.4166606390209E-03
(PID.TID 0000.0001) %MON extforcing_fv_max            =   2.1996198445559E-01
(PID.TID 0000.0001) %MON extforcing_fv_min            =  -1.8222950249910E-01
(PID.TID 0000.0001) %MON extforcing_fv_mean           =  -5.7752354275307E-03
(PID.TID 0000.0001) %MON extforcing_fv_sd             =   4.6406538642117E-02
(PID.TID 0000.0001) %MON extforcing_fv_del2           =   4.4720700663992E-03
(PID.TID 0000.0001) %MON advcfl_uvel_max              =   2.5033773243690E-02
(PID.TID 0000.0001) %MON advcfl_vvel_max              =   1.4852446797329E-02
(PID.TID 0000.0001) %MON advcfl_wvel_max              =   1.7353398045823E-01
(PID.TID 0000.0001) %MON advcfl_W_hf_max              =   1.4545887358677E-01
(PID.TID 0000.0001) %MON pe_b_mean                    =   1.7990885396670E-04
(PID.TID 0000.0001) %MON ke_max                       =   1.3150752723282E-02
(PID.TID 0000.0001) %MON ke_mean                      =   2.8192117003850E-04
(PID.TID 0000.0001) %MON ke_vol                       =   1.3226782436723E+18
(PID.TID 0000.0001) %MON vort_r_min                   =  -4.1886569605379E-07
(PID.TID 0000.0001) %MON vort_r_max                   =   5.1671684668042E-07
(PID.TID 0000.0001) %MON vort_a_mean                  =  -2.5205769655454E-05
(PID.TID 0000.0001) %MON vort_a_sd                    =   7.3401258272599E-05
(PID.TID 0000.0001) %MON vort_p_mean                  =  -3.1758669887602E-05
(PID.TID 0000.0001) %MON vort_p_sd                    =   1.3125972971046E-04
(PID.TID 0000.0001) %MON surfExpan_theta_mean         =   7.2452441851528E-05
(PID.TID 0000.0001) %MON surfExpan_salt_mean          =   3.2634074185313E-06
(PID.TID 0000.0001) // =======================================================
(PID.TID 0000.0001) // End MONITOR dynamic field statistics
(PID.TID 0000.0001) // =======================================================
time,SST,SSS,fu,fv,Q,E-P,i0,i1,a,b =   7.3440E+05  5.6614E-01  3.4563E+01 -3.7742E-02 -6.0072E-02  2.6548E+02  0.0000E+00    12     1  7.8333E-01  2.1667E-01
time,fu0,fu1,fu =   7.3440E+05 -4.5368E-02 -3.5633E-02 -3.7742E-02  7.833333333333333E-01  2.166666666666667E-01
 cg2d: Sum(rhs),rhsMax =  -8.15974024459543E-13  1.00066236471318E+01
(PID.TID 0000.0001)                    cg2d_init_res =    8.19481696754729E-01
(PID.TID 0000.0001)                       cg2d_iters =    25
(PID.TID 0000.0001)                         cg2d_res =    3.14876546844666E-14
(PID.TID 0000.0001) // =======================================================
(PID.TID 0000.0001) // Begin MONITOR dynamic field statistics
(PID.TID 0000.0001) // =======================================================
(PID.TID 0000.0001) %MON time_tsnumber                =                    18
(PID.TID 0000.0001) %MON time_secondsf                =   7.7760000000000E+05
(PID.TID 0000.0001) %MON dynstat_eta_max              =   1.2068189096242E+00
(PID.TID 0000.0001) %MON dynstat_eta_min              =  -1.1696896643165E+00
(PID.TID 0000.0001) %MON dynstat_eta_mean             =   7.3520830153634E-16
(PID.TID 0000.0001) %MON dynstat_eta_sd               =   3.7921873746087E-01
(PID.TID 0000.0001) %MON dynstat_eta_del2             =   2.0364520375368E-02
(PID.TID 0000.0001) %MON dynstat_uvel_max             =   1.7335108387065E-01
(PID.TID 0000.0001) %MON dynstat_uvel_min             =  -1.3307394235641E-01
(PID.TID 0000.0001) %MON dynstat_uvel_mean            =  -1.0171030136584E-02
(PID.TID 0000.0001) %MON dynstat_uvel_sd              =   1.8050481543857E-02
(PID.TID 0000.0001) %MON dynstat_uvel_del2            =   3.6546106712610E-03
(PID.TID 0000.0001) %MON dynstat_vvel_max             =   1.5465441874621E-01
(PID.TID 0000.0001) %MON dynstat_vvel_min             =  -1.1943981121630E-01
(PID.TID 0000.0001) %MON dynstat_vvel_mean            =   2.7473901203413E-03
(PID.TID 0000.0001) %MON dynstat_vvel_sd              =   1.3782122370885E-02
(PID.TID 0000.0001) %MON dynstat_vvel_del2            =   3.4329598838229E-03
(PID.TID 0000.0001) %MON dynstat_wvel_max             =   2.6977418271811E-04
(PID.TID 0000.0001) %MON dynstat_wvel_min             =  -3.3143374925941E-04
(PID.TID 0000.0001) %MON dynstat_wvel_mean            =   9.7820241866444E-22
(PID.TID 0000.0001) %MON dynstat_wvel_sd              =   2.9898544484229E-05
(PID.TID 0000.0001) %MON dynstat_wvel_del2            =   9.7304276677482E-06
(PID.TID 0000.0001) %MON dynstat_theta_max            =   2.9448998040932E+01
(PID.TID 0000.0001) %MON dynstat_theta_min            =  -2.0857403248148E+00
(PID.TID 0000.0001) %MON dynstat_theta_mean           =   3.5954914191902E+00
(PID.TID 0000.0001) %MON dynstat_theta_sd             =   4.3570704022879E+00
(PID.TID 0000.0001) %MON dynstat_theta_del2           =   1.4054174568275E-01
(PID.TID 0000.0001) %MON dynstat_salt_max             =   3.7423350971085E+01
(PID.TID 0000.0001) %MON dynstat_salt_min             =   2.9781952205221E+01
(PID.TID 0000.0001) %MON dynstat_salt_mean            =   3.4716163114891E+01
(PID.TID 0000.0001) %MON dynstat_salt_sd              =   2.9592662914981E-01
(PID.TID 0000.0001) %MON dynstat_salt_del2            =   2.6048918311143E-02
(PID.TID 0000.0001) %MON dynstat_sst_max              =   2.9448998040932E+01
(PID.TID 0000.0001) %MON dynstat_sst_min              =  -1.9073994516372E+00
(PID.TID 0000.0001) %MON dynstat_sst_mean             =   1.8485244184958E+01
(PID.TID 0000.0001) %MON dynstat_sst_sd               =   8.9509905877388E+00
(PID.TID 0000.0001) %MON dynstat_sst_del2             =   2.7391556175368E-01
(PID.TID 0000.0001) %MON dynstat_sss_max              =   3.7423350971085E+01
(PID.TID 0000.0001) %MON dynstat_sss_min              =   2.9781952205221E+01
(PID.TID 0000.0001) %MON dynstat_sss_mean             =   3.4849465207024E+01
(PID.TID 0000.0001) %MON dynstat_sss_sd               =   9.6842448224809E-01
(PID.TID 0000.0001) %MON dynstat_sss_del2             =   8.2463648636619E-02
(PID.TID 0000.0001) %MON extforcing_qnet_max          =   4.3480039978027E+02
(PID.TID 0000.0001) %MON extforcing_qnet_min          =  -1.8305610326131E+02
(PID.TID 0000.0001) %MON extforcing_qnet_mean         =  -1.6593853713894E+01
(PID.TID 0000.0001) %MON extforcing_qnet_sd           =   1.1109271798907E+02
(PID.TID 0000.0001) %MON extforcing_qnet_del2         =   9.5423232691309E+00
(PID.TID 0000.0001) %MON extforcing_qsw_max           =   0.0000000000000E+00
(PID.TID 0000.0001) %MON extforcing_qsw_min           =   0.0000000000000E+00
(PID.TID 0000.0001) %MON extforcing_qsw_mean          =   0.0000000000000E+00
(PID.TID 0000.0001) %MON extforcing_qsw_sd            =   0.0000000000000E+00
(PID.TID 0000.0001) %MON extforcing_qsw_del2          =   0.0000000000000E+00
(PID.TID 0000.0001) %MON extforcing_empmr_max         =   0.0000000000000E+00
(PID.TID 0000.0001) %MON extforcing_empmr_min         =   0.0000000000000E+00
(PID.TID 0000.0001) %MON extforcing_empmr_mean        =   0.0000000000000E+00
(PID.TID 0000.0001) %MON extforcing_empmr_sd          =   0.0000000000000E+00
(PID.TID 0000.0001) %MON extforcing_empmr_del2        =   0.0000000000000E+00
(PID.TID 0000.0001) %MON extforcing_fu_max            =   2.6997714042664E-01
(PID.TID 0000.0001) %MON extforcing_fu_min            =  -1.6559334024787E-01
(PID.TID 0000.0001) %MON extforcing_fu_mean           =   1.6051738489308E-02
(PID.TID 0000.0001) %MON extforcing_fu_sd             =   9.0370613416417E-02
(PID.TID 0000.0001) %MON extforcing_fu_del2           =   7.4281236304034E-03
(PID.TID 0000.0001) %MON extforcing_fv_max            =   2.2090193703771E-01
(PID.TID 0000.0001) %MON extforcing_fv_min            =  -1.8193717375398E-01
(PID.TID 0000.0001) %MON extforcing_fv_mean           =  -5.7383541641004E-03
(PID.TID 0000.0001) %MON extforcing_fv_sd             =   4.6515812205020E-02
(PID.TID 0000.0001) %MON extforcing_fv_del2           =   4.4920210397820E-03
(PID.TID 0000.0001) %MON advcfl_uvel_max              =   2.4241653747498E-02
(PID.TID 0000.0001) %MON advcfl_vvel_max              =   1.5023436601858E-02
(PID.TID 0000.0001) %MON advcfl_wvel_max              =   1.7648349835225E-01
(PID.TID 0000.0001) %MON advcfl_W_hf_max              =   1.4757428088172E-01
(PID.TID 0000.0001) %MON pe_b_mean                    =   1.8401819909841E-04
(PID.TID 0000.0001) %MON ke_max                       =   1.3876560106190E-02
(PID.TID 0000.0001) %MON ke_mean                      =   2.8368792367134E-04
(PID.TID 0000.0001) %MON ke_vol                       =   1.3226782436723E+18
(PID.TID 0000.0001) %MON vort_r_min                   =  -4.5079432135892E-07
(PID.TID 0000.0001) %MON vort_r_max                   =   4.5622907981125E-07
(PID.TID 0000.0001) %MON vort_a_mean                  =  -2.5205769592918E-05
(PID.TID 0000.0001) %MON vort_a_sd                    =   7.3401286141724E-05
(PID.TID 0000.0001) %MON vort_p_mean                  =  -3.1758669808808E-05
(PID.TID 0000.0001) %MON vort_p_sd                    =   1.3125983597449E-04
(PID.TID 0000.0001) %MON surfExpan_theta_mean         =   5.8392929798200E-05
(PID.TID 0000.0001) %MON surfExpan_salt_mean          =   1.9900222786185E-06
(PID.TID 0000.0001) // =======================================================
(PID.TID 0000.0001) // End MONITOR dynamic field statistics
(PID.TID 0000.0001) // =======================================================
time,SST,SSS,fu,fv,Q,E-P,i0,i1,a,b =   7.7760E+05  5.9632E-01  3.4574E+01 -3.7580E-02 -5.9855E-02  2.6550E+02  0.0000E+00    12     1  8.0000E-01  2.0000E-01
time,fu0,fu1,fu =   7.7760E+05 -4.5368E-02 -3.5633E-02 -3.7580E-02  8.000000000000000E-01  2.000000000000000E-01
 cg2d: Sum(rhs),rhsMax =  -7.10776923429357E-13  9.70409645616990E+00
(PID.TID 0000.0001)                    cg2d_init_res =    8.31642826210948E-01
(PID.TID 0000.0001)                       cg2d_iters =    25
(PID.TID 0000.0001)                         cg2d_res =    3.02218378400586E-14
(PID.TID 0000.0001) // =======================================================
(PID.TID 0000.0001) // Begin MONITOR dynamic field statistics
(PID.TID 0000.0001) // =======================================================
(PID.TID 0000.0001) %MON time_tsnumber                =                    19
(PID.TID 0000.0001) %MON time_secondsf                =   8.2080000000000E+05
(PID.TID 0000.0001) %MON dynstat_eta_max              =   1.1719971390955E+00
(PID.TID 0000.0001) %MON dynstat_eta_min              =  -1.1424836987994E+00
(PID.TID 0000.0001) %MON dynstat_eta_mean             =   5.6810433000570E-16
(PID.TID 0000.0001) %MON dynstat_eta_sd               =   3.8169644205613E-01
(PID.TID 0000.0001) %MON dynstat_eta_del2             =   2.0096381552810E-02
(PID.TID 0000.0001) %MON dynstat_uvel_max             =   1.7870390417608E-01
(PID.TID 0000.0001) %MON dynstat_uvel_min             =  -1.3886278688848E-01
(PID.TID 0000.0001) %MON dynstat_uvel_mean            =  -9.8497297166156E-03
(PID.TID 0000.0001) %MON dynstat_uvel_sd              =   1.8347971934128E-02
(PID.TID 0000.0001) %MON dynstat_uvel_del2            =   3.6796434256715E-03
(PID.TID 0000.0001) %MON dynstat_vvel_max             =   1.5151068285293E-01
(PID.TID 0000.0001) %MON dynstat_vvel_min             =  -1.3309420967426E-01
(PID.TID 0000.0001) %MON dynstat_vvel_mean            =   2.4704850980732E-03
(PID.TID 0000.0001) %MON dynstat_vvel_sd              =   1.3692274013221E-02
(PID.TID 0000.0001) %MON dynstat_vvel_del2            =   3.4122862461765E-03
(PID.TID 0000.0001) %MON dynstat_wvel_max             =   2.7068339094379E-04
(PID.TID 0000.0001) %MON dynstat_wvel_min             =  -3.1410631604465E-04
(PID.TID 0000.0001) %MON dynstat_wvel_mean            =   7.8788330104047E-23
(PID.TID 0000.0001) %MON dynstat_wvel_sd              =   2.8833863949827E-05
(PID.TID 0000.0001) %MON dynstat_wvel_del2            =   9.2763000349414E-06
(PID.TID 0000.0001) %MON dynstat_theta_max            =   2.9439845061309E+01
(PID.TID 0000.0001) %MON dynstat_theta_min            =  -2.0663693810642E+00
(PID.TID 0000.0001) %MON dynstat_theta_mean           =   3.5949685657832E+00
(PID.TID 0000.0001) %MON dynstat_theta_sd             =   4.3546880029108E+00
(PID.TID 0000.0001) %MON dynstat_theta_del2           =   1.4033698820283E-01
(PID.TID 0000.0001) %MON dynstat_salt_max             =   3.7422715714236E+01
(PID.TID 0000.0001) %MON dynstat_salt_min             =   2.9781320718680E+01
(PID.TID 0000.0001) %MON dynstat_salt_mean            =   3.4716149255547E+01
(PID.TID 0000.0001) %MON dynstat_salt_sd              =   2.9589427870734E-01
(PID.TID 0000.0001) %MON dynstat_salt_del2            =   2.6057093260188E-02
(PID.TID 0000.0001) %MON dynstat_sst_max              =   2.9439845061309E+01
(PID.TID 0000.0001) %MON dynstat_sst_min              =  -1.9085533388639E+00
(PID.TID 0000.0001) %MON dynstat_sst_mean             =   1.8486773721177E+01
(PID.TID 0000.0001) %MON dynstat_sst_sd               =   8.9422947094284E+00
(PID.TID 0000.0001) %MON dynstat_sst_del2             =   2.7369175143190E-01
(PID.TID 0000.0001) %MON dynstat_sss_max              =   3.7422715714236E+01
(PID.TID 0000.0001) %MON dynstat_sss_min              =   2.9781320718680E+01
(PID.TID 0000.0001) %MON dynstat_sss_mean             =   3.4850246628328E+01
(PID.TID 0000.0001) %MON dynstat_sss_sd               =   9.6826405997766E-01
(PID.TID 0000.0001) %MON dynstat_sss_del2             =   8.2339220918870E-02
(PID.TID 0000.0001) %MON extforcing_qnet_max          =   4.3532449340820E+02
(PID.TID 0000.0001) %MON extforcing_qnet_min          =  -1.8282252197266E+02
(PID.TID 0000.0001) %MON extforcing_qnet_mean         =  -1.6587597735982E+01
(PID.TID 0000.0001) %MON extforcing_qnet_sd           =   1.1099484968291E+02
(PID.TID 0000.0001) %MON extforcing_qnet_del2         =   9.5493322704987E+00
(PID.TID 0000.0001) %MON extforcing_qsw_max           =   0.0000000000000E+00
(PID.TID 0000.0001) %MON extforcing_qsw_min           =   0.0000000000000E+00
(PID.TID 0000.0001) %MON extforcing_qsw_mean          =   0.0000000000000E+00
(PID.TID 0000.0001) %MON extforcing_qsw_sd            =   0.0000000000000E+00
(PID.TID 0000.0001) %MON extforcing_qsw_del2          =   0.0000000000000E+00
(PID.TID 0000.0001) %MON extforcing_empmr_max         =   0.0000000000000E+00
(PID.TID 0000.0001) %MON extforcing_empmr_min         =   0.0000000000000E+00
(PID.TID 0000.0001) %MON extforcing_empmr_mean        =   0.0000000000000E+00
(PID.TID 0000.0001) %MON extforcing_empmr_sd          =   0.0000000000000E+00
(PID.TID 0000.0001) %MON extforcing_empmr_del2        =   0.0000000000000E+00
(PID.TID 0000.0001) %MON extforcing_fu_max            =   2.7001778483391E-01
(PID.TID 0000.0001) %MON extforcing_fu_min            =  -1.6600005030632E-01
(PID.TID 0000.0001) %MON extforcing_fu_mean           =   1.6047892078789E-02
(PID.TID 0000.0001) %MON extforcing_fu_sd             =   9.0407764820516E-02
(PID.TID 0000.0001) %MON extforcing_fu_del2           =   7.4408101367001E-03
(PID.TID 0000.0001) %MON extforcing_fv_max            =   2.2184188961983E-01
(PID.TID 0000.0001) %MON extforcing_fv_min            =  -1.8164484500885E-01
(PID.TID 0000.0001) %MON extforcing_fv_mean           =  -5.7014729006699E-03
(PID.TID 0000.0001) %MON extforcing_fv_sd             =   4.6628624802842E-02
(PID.TID 0000.0001) %MON extforcing_fv_del2           =   4.5135869181350E-03
(PID.TID 0000.0001) %MON advcfl_uvel_max              =   2.4990199493618E-02
(PID.TID 0000.0001) %MON advcfl_vvel_max              =   1.4718047869557E-02
(PID.TID 0000.0001) %MON advcfl_wvel_max              =   1.7355508495276E-01
(PID.TID 0000.0001) %MON advcfl_W_hf_max              =   1.5172514608887E-01
(PID.TID 0000.0001) %MON pe_b_mean                    =   1.8643069716744E-04
(PID.TID 0000.0001) %MON ke_max                       =   1.4508883259034E-02
(PID.TID 0000.0001) %MON ke_mean                      =   2.8392798088415E-04
(PID.TID 0000.0001) %MON ke_vol                       =   1.3226782436723E+18
(PID.TID 0000.0001) %MON vort_r_min                   =  -4.7102626846666E-07
(PID.TID 0000.0001) %MON vort_r_max                   =   4.0343045504075E-07
(PID.TID 0000.0001) %MON vort_a_mean                  =  -2.5205769531415E-05
(PID.TID 0000.0001) %MON vort_a_sd                    =   7.3401336410383E-05
(PID.TID 0000.0001) %MON vort_p_mean                  =  -3.1758669731316E-05
(PID.TID 0000.0001) %MON vort_p_sd                    =   1.3126002829426E-04
(PID.TID 0000.0001) %MON surfExpan_theta_mean         =   4.5025282191780E-05
(PID.TID 0000.0001) %MON surfExpan_salt_mean          =   8.1180215254831E-07
(PID.TID 0000.0001) // =======================================================
(PID.TID 0000.0001) // End MONITOR dynamic field statistics
(PID.TID 0000.0001) // =======================================================
time,SST,SSS,fu,fv,Q,E-P,i0,i1,a,b =   8.2080E+05  6.2649E-01  3.4586E+01 -3.7418E-02 -5.9638E-02  2.6552E+02  0.0000E+00    12     1  8.1667E-01  1.8333E-01
time,fu0,fu1,fu =   8.2080E+05 -4.5368E-02 -3.5633E-02 -3.7418E-02  8.166666666666667E-01  1.833333333333333E-01
 cg2d: Sum(rhs),rhsMax =  -1.44098274978965E-12  9.47667283577992E+00
(PID.TID 0000.0001)                    cg2d_init_res =    8.36955284174250E-01
(PID.TID 0000.0001)                       cg2d_iters =    25
(PID.TID 0000.0001)                         cg2d_res =    3.44253783405831E-14
(PID.TID 0000.0001) // =======================================================
(PID.TID 0000.0001) // Begin MONITOR dynamic field statistics
(PID.TID 0000.0001) // =======================================================
(PID.TID 0000.0001) %MON time_tsnumber                =                    20
(PID.TID 0000.0001) %MON time_secondsf                =   8.6400000000000E+05
(PID.TID 0000.0001) %MON dynstat_eta_max              =   1.1373520931800E+00
(PID.TID 0000.0001) %MON dynstat_eta_min              =  -1.0844837737458E+00
(PID.TID 0000.0001) %MON dynstat_eta_mean             =   4.1326358815815E-16
(PID.TID 0000.0001) %MON dynstat_eta_sd               =   3.8266456404826E-01
(PID.TID 0000.0001) %MON dynstat_eta_del2             =   2.0016185136847E-02
(PID.TID 0000.0001) %MON dynstat_uvel_max             =   1.8265204442947E-01
(PID.TID 0000.0001) %MON dynstat_uvel_min             =  -1.4417637892629E-01
(PID.TID 0000.0001) %MON dynstat_uvel_mean            =  -9.4291696919998E-03
(PID.TID 0000.0001) %MON dynstat_uvel_sd              =   1.8557382024491E-02
(PID.TID 0000.0001) %MON dynstat_uvel_del2            =   3.6951888396922E-03
(PID.TID 0000.0001) %MON dynstat_vvel_max             =   1.4331373794719E-01
(PID.TID 0000.0001) %MON dynstat_vvel_min             =  -1.4410398593426E-01
(PID.TID 0000.0001) %MON dynstat_vvel_mean            =   2.2525378454835E-03
(PID.TID 0000.0001) %MON dynstat_vvel_sd              =   1.3654313878652E-02
(PID.TID 0000.0001) %MON dynstat_vvel_del2            =   3.3965635127459E-03
(PID.TID 0000.0001) %MON dynstat_wvel_max             =   2.6972191768302E-04
(PID.TID 0000.0001) %MON dynstat_wvel_min             =  -2.9420494189990E-04
(PID.TID 0000.0001) %MON dynstat_wvel_mean            =   1.1312146312188E-21
(PID.TID 0000.0001) %MON dynstat_wvel_sd              =   2.7912187433481E-05
(PID.TID 0000.0001) %MON dynstat_wvel_del2            =   8.9442087998236E-06
(PID.TID 0000.0001) %MON dynstat_theta_max            =   2.9427701010103E+01
(PID.TID 0000.0001) %MON dynstat_theta_min            =  -2.0640050703766E+00
(PID.TID 0000.0001) %MON dynstat_theta_mean           =   3.5945919176683E+00
(PID.TID 0000.0001) %MON dynstat_theta_sd             =   4.3526741362057E+00
(PID.TID 0000.0001) %MON dynstat_theta_del2           =   1.4016476075024E-01
(PID.TID 0000.0001) %MON dynstat_salt_max             =   3.7421943763875E+01
(PID.TID 0000.0001) %MON dynstat_salt_min             =   2.9780741356025E+01
(PID.TID 0000.0001) %MON dynstat_salt_mean            =   3.4716148005181E+01
(PID.TID 0000.0001) %MON dynstat_salt_sd              =   2.9586487990090E-01
(PID.TID 0000.0001) %MON dynstat_salt_del2            =   2.6065363857674E-02
(PID.TID 0000.0001) %MON dynstat_sst_max              =   2.9427701010103E+01
(PID.TID 0000.0001) %MON dynstat_sst_min              =  -1.9086728842838E+00
(PID.TID 0000.0001) %MON dynstat_sst_mean             =   1.8488660096759E+01
(PID.TID 0000.0001) %MON dynstat_sst_sd               =   8.9351271725053E+00
(PID.TID 0000.0001) %MON dynstat_sst_del2             =   2.7358903111281E-01
(PID.TID 0000.0001) %MON dynstat_sss_max              =   3.7421943763875E+01
(PID.TID 0000.0001) %MON dynstat_sss_min              =   2.9780741356025E+01
(PID.TID 0000.0001) %MON dynstat_sss_mean             =   3.4851093757916E+01
(PID.TID 0000.0001) %MON dynstat_sss_sd               =   9.6804569134754E-01
(PID.TID 0000.0001) %MON dynstat_sss_del2             =   8.2220069623200E-02
(PID.TID 0000.0001) %MON extforcing_qnet_max          =   4.3584858703613E+02
(PID.TID 0000.0001) %MON extforcing_qnet_min          =  -1.8258894068400E+02
(PID.TID 0000.0001) %MON extforcing_qnet_mean         =  -1.6581341758071E+01
(PID.TID 0000.0001) %MON extforcing_qnet_sd           =   1.1089764747903E+02
(PID.TID 0000.0001) %MON extforcing_qnet_del2         =   9.5567797647122E+00
(PID.TID 0000.0001) %MON extforcing_qsw_max           =   0.0000000000000E+00
(PID.TID 0000.0001) %MON extforcing_qsw_min           =   0.0000000000000E+00
(PID.TID 0000.0001) %MON extforcing_qsw_mean          =   0.0000000000000E+00
(PID.TID 0000.0001) %MON extforcing_qsw_sd            =   0.0000000000000E+00
(PID.TID 0000.0001) %MON extforcing_qsw_del2          =   0.0000000000000E+00
(PID.TID 0000.0001) %MON extforcing_empmr_max         =   0.0000000000000E+00
(PID.TID 0000.0001) %MON extforcing_empmr_min         =   0.0000000000000E+00
(PID.TID 0000.0001) %MON extforcing_empmr_mean        =   0.0000000000000E+00
(PID.TID 0000.0001) %MON extforcing_empmr_sd          =   0.0000000000000E+00
(PID.TID 0000.0001) %MON extforcing_empmr_del2        =   0.0000000000000E+00
(PID.TID 0000.0001) %MON extforcing_fu_max            =   2.7005842924118E-01
(PID.TID 0000.0001) %MON extforcing_fu_min            =  -1.6640676036477E-01
(PID.TID 0000.0001) %MON extforcing_fu_mean           =   1.6044045668270E-02
(PID.TID 0000.0001) %MON extforcing_fu_sd             =   9.0447607892843E-02
(PID.TID 0000.0001) %MON extforcing_fu_del2           =   7.4552819701644E-03
(PID.TID 0000.0001) %MON extforcing_fv_max            =   2.2278184220195E-01
(PID.TID 0000.0001) %MON extforcing_fv_min            =  -1.8135251626372E-01
(PID.TID 0000.0001) %MON extforcing_fv_mean           =  -5.6645916372396E-03
(PID.TID 0000.0001) %MON extforcing_fv_sd             =   4.6744950812647E-02
(PID.TID 0000.0001) %MON extforcing_fv_del2           =   4.5364874763047E-03
(PID.TID 0000.0001) %MON advcfl_uvel_max              =   2.5542312851275E-02
(PID.TID 0000.0001) %MON advcfl_vvel_max              =   1.3998546658476E-02
(PID.TID 0000.0001) %MON advcfl_wvel_max              =   1.6440867779370E-01
(PID.TID 0000.0001) %MON advcfl_W_hf_max              =   1.4608110835203E-01
(PID.TID 0000.0001) %MON pe_b_mean                    =   1.8737760957967E-04
(PID.TID 0000.0001) %MON ke_max                       =   1.5271419869086E-02
(PID.TID 0000.0001) %MON ke_mean                      =   2.8282736257645E-04
(PID.TID 0000.0001) %MON ke_vol                       =   1.3226782436723E+18
(PID.TID 0000.0001) %MON vort_r_min                   =  -4.7830858799585E-07
(PID.TID 0000.0001) %MON vort_r_max                   =   4.1117187152574E-07
(PID.TID 0000.0001) %MON vort_a_mean                  =  -2.5205769477099E-05
(PID.TID 0000.0001) %MON vort_a_sd                    =   7.3401406380233E-05
(PID.TID 0000.0001) %MON vort_p_mean                  =  -3.1758669662879E-05
(PID.TID 0000.0001) %MON vort_p_sd                    =   1.3126028967015E-04
(PID.TID 0000.0001) %MON surfExpan_theta_mean         =   3.2625082598699E-05
(PID.TID 0000.0001) %MON surfExpan_salt_mean          =  -2.5167799120553E-07
(PID.TID 0000.0001) // =======================================================
(PID.TID 0000.0001) // End MONITOR dynamic field statistics
(PID.TID 0000.0001) // =======================================================
time,SST,SSS,fu,fv,Q,E-P,i0,i1,a,b =   8.6400E+05  6.5667E-01  3.4598E+01 -3.7255E-02 -5.9422E-02  2.6555E+02  0.0000E+00    12     1  8.3333E-01  1.6667E-01
time,fu0,fu1,fu =   8.6400E+05 -4.5368E-02 -3.5633E-02 -3.7255E-02  8.333333333333334E-01  1.666666666666666E-01
 cg2d: Sum(rhs),rhsMax =  -8.05447722407315E-13  1.03748401635906E+01
(PID.TID 0000.0001)                    cg2d_init_res =    7.49246192632091E-01
(PID.TID 0000.0001)                       cg2d_iters =    25
(PID.TID 0000.0001)                         cg2d_res =    3.57303834708459E-14
(PID.TID 0000.0001) // =======================================================
(PID.TID 0000.0001) // Begin MONITOR dynamic field statistics
(PID.TID 0000.0001) // =======================================================
(PID.TID 0000.0001) %MON time_tsnumber                =                    21
(PID.TID 0000.0001) %MON time_secondsf                =   9.0720000000000E+05
(PID.TID 0000.0001) %MON dynstat_eta_max              =   1.2342786775168E+00
(PID.TID 0000.0001) %MON dynstat_eta_min              =  -1.0092650289924E+00
(PID.TID 0000.0001) %MON dynstat_eta_mean             =   6.5891024695960E-16
(PID.TID 0000.0001) %MON dynstat_eta_sd               =   3.8239513711973E-01
(PID.TID 0000.0001) %MON dynstat_eta_del2             =   1.9977970194943E-02
(PID.TID 0000.0001) %MON dynstat_uvel_max             =   1.8513094546156E-01
(PID.TID 0000.0001) %MON dynstat_uvel_min             =  -1.4899777620661E-01
(PID.TID 0000.0001) %MON dynstat_uvel_mean            =  -8.9274717220776E-03
(PID.TID 0000.0001) %MON dynstat_uvel_sd              =   1.8687000738064E-02
(PID.TID 0000.0001) %MON dynstat_uvel_del2            =   3.7032781181794E-03
(PID.TID 0000.0001) %MON dynstat_vvel_max             =   1.3018251862544E-01
(PID.TID 0000.0001) %MON dynstat_vvel_min             =  -1.5198623025832E-01
(PID.TID 0000.0001) %MON dynstat_vvel_mean            =   2.1003450514932E-03
(PID.TID 0000.0001) %MON dynstat_vvel_sd              =   1.3657378826166E-02
(PID.TID 0000.0001) %MON dynstat_vvel_del2            =   3.3911454658299E-03
(PID.TID 0000.0001) %MON dynstat_wvel_max             =   2.6803306319881E-04
(PID.TID 0000.0001) %MON dynstat_wvel_min             =  -2.7324245495975E-04
(PID.TID 0000.0001) %MON dynstat_wvel_mean            =   6.0954872562301E-23
(PID.TID 0000.0001) %MON dynstat_wvel_sd              =   2.7161173658378E-05
(PID.TID 0000.0001) %MON dynstat_wvel_del2            =   8.7529433541574E-06
(PID.TID 0000.0001) %MON dynstat_theta_max            =   2.9412599472826E+01
(PID.TID 0000.0001) %MON dynstat_theta_min            =  -2.0587175098669E+00
(PID.TID 0000.0001) %MON dynstat_theta_mean           =   3.5943486706790E+00
(PID.TID 0000.0001) %MON dynstat_theta_sd             =   4.3510365111841E+00
(PID.TID 0000.0001) %MON dynstat_theta_del2           =   1.4001637330323E-01
(PID.TID 0000.0001) %MON dynstat_salt_max             =   3.7421100462380E+01
(PID.TID 0000.0001) %MON dynstat_salt_min             =   2.9780304911953E+01
(PID.TID 0000.0001) %MON dynstat_salt_mean            =   3.4716157936124E+01
(PID.TID 0000.0001) %MON dynstat_salt_sd              =   2.9583855687134E-01
(PID.TID 0000.0001) %MON dynstat_salt_del2            =   2.6074311924539E-02
(PID.TID 0000.0001) %MON dynstat_sst_max              =   2.9412599472826E+01
(PID.TID 0000.0001) %MON dynstat_sst_min              =  -1.9087260675532E+00
(PID.TID 0000.0001) %MON dynstat_sst_mean             =   1.8490788334817E+01
(PID.TID 0000.0001) %MON dynstat_sst_sd               =   8.9296007493976E+00
(PID.TID 0000.0001) %MON dynstat_sst_del2             =   2.7339130798522E-01
(PID.TID 0000.0001) %MON dynstat_sss_max              =   3.7421100462380E+01
(PID.TID 0000.0001) %MON dynstat_sss_min              =   2.9780304911953E+01
(PID.TID 0000.0001) %MON dynstat_sss_mean             =   3.4851921952374E+01
(PID.TID 0000.0001) %MON dynstat_sss_sd               =   9.6777950947068E-01
(PID.TID 0000.0001) %MON dynstat_sss_del2             =   8.2107103839770E-02
(PID.TID 0000.0001) %MON extforcing_qnet_max          =   4.3637268066406E+02
(PID.TID 0000.0001) %MON extforcing_qnet_min          =  -1.8235535939535E+02
(PID.TID 0000.0001) %MON extforcing_qnet_mean         =  -1.6575085780159E+01
(PID.TID 0000.0001) %MON extforcing_qnet_sd           =   1.1080111313050E+02
(PID.TID 0000.0001) %MON extforcing_qnet_del2         =   9.5645523805340E+00
(PID.TID 0000.0001) %MON extforcing_qsw_max           =   0.0000000000000E+00
(PID.TID 0000.0001) %MON extforcing_qsw_min           =   0.0000000000000E+00
(PID.TID 0000.0001) %MON extforcing_qsw_mean          =   0.0000000000000E+00
(PID.TID 0000.0001) %MON extforcing_qsw_sd            =   0.0000000000000E+00
(PID.TID 0000.0001) %MON extforcing_qsw_del2          =   0.0000000000000E+00
(PID.TID 0000.0001) %MON extforcing_empmr_max         =   0.0000000000000E+00
(PID.TID 0000.0001) %MON extforcing_empmr_min         =   0.0000000000000E+00
(PID.TID 0000.0001) %MON extforcing_empmr_mean        =   0.0000000000000E+00
(PID.TID 0000.0001) %MON extforcing_empmr_sd          =   0.0000000000000E+00
(PID.TID 0000.0001) %MON extforcing_empmr_del2        =   0.0000000000000E+00
(PID.TID 0000.0001) %MON extforcing_fu_max            =   2.7009907364845E-01
(PID.TID 0000.0001) %MON extforcing_fu_min            =  -1.6681347042322E-01
(PID.TID 0000.0001) %MON extforcing_fu_mean           =   1.6040199257752E-02
(PID.TID 0000.0001) %MON extforcing_fu_sd             =   9.0490139077950E-02
(PID.TID 0000.0001) %MON extforcing_fu_del2           =   7.4710033155170E-03
(PID.TID 0000.0001) %MON extforcing_fv_max            =   2.2372179478407E-01
(PID.TID 0000.0001) %MON extforcing_fv_min            =  -1.8106018751860E-01
(PID.TID 0000.0001) %MON extforcing_fv_mean           =  -5.6277103738091E-03
(PID.TID 0000.0001) %MON extforcing_fv_sd             =   4.6864764071854E-02
(PID.TID 0000.0001) %MON extforcing_fv_del2           =   4.5601172365675E-03
(PID.TID 0000.0001) %MON advcfl_uvel_max              =   2.5888965777536E-02
(PID.TID 0000.0001) %MON advcfl_vvel_max              =   1.4764243486558E-02
(PID.TID 0000.0001) %MON advcfl_wvel_max              =   1.4902227457603E-01
(PID.TID 0000.0001) %MON advcfl_W_hf_max              =   1.3174606420309E-01
(PID.TID 0000.0001) %MON pe_b_mean                    =   1.8711384436100E-04
(PID.TID 0000.0001) %MON ke_max                       =   1.5919038256544E-02
(PID.TID 0000.0001) %MON ke_mean                      =   2.8057675511925E-04
(PID.TID 0000.0001) %MON ke_vol                       =   1.3226782436723E+18
(PID.TID 0000.0001) %MON vort_r_min                   =  -4.7193184146892E-07
(PID.TID 0000.0001) %MON vort_r_max                   =   4.1493287654770E-07
(PID.TID 0000.0001) %MON vort_a_mean                  =  -2.5205769434468E-05
(PID.TID 0000.0001) %MON vort_a_sd                    =   7.3401493047662E-05
(PID.TID 0000.0001) %MON vort_p_mean                  =  -3.1758669609165E-05
(PID.TID 0000.0001) %MON vort_p_sd                    =   1.3126060235608E-04
(PID.TID 0000.0001) %MON surfExpan_theta_mean         =   2.1431811435831E-05
(PID.TID 0000.0001) %MON surfExpan_salt_mean          =  -1.1819814292109E-06
(PID.TID 0000.0001) // =======================================================
(PID.TID 0000.0001) // End MONITOR dynamic field statistics
(PID.TID 0000.0001) // =======================================================
time,SST,SSS,fu,fv,Q,E-P,i0,i1,a,b =   9.0720E+05  6.8684E-01  3.4609E+01 -3.7093E-02 -5.9205E-02  2.6557E+02  0.0000E+00    12     1  8.5000E-01  1.5000E-01
time,fu0,fu1,fu =   9.0720E+05 -4.5368E-02 -3.5633E-02 -3.7093E-02  8.500000000000000E-01  1.500000000000000E-01
 cg2d: Sum(rhs),rhsMax =  -1.10250697460401E-12  1.11482726022284E+01
(PID.TID 0000.0001)                    cg2d_init_res =    6.80873735209817E-01
(PID.TID 0000.0001)                       cg2d_iters =    25
(PID.TID 0000.0001)                         cg2d_res =    3.60880871980588E-14
(PID.TID 0000.0001) // =======================================================
(PID.TID 0000.0001) // Begin MONITOR dynamic field statistics
(PID.TID 0000.0001) // =======================================================
(PID.TID 0000.0001) %MON time_tsnumber                =                    22
(PID.TID 0000.0001) %MON time_secondsf                =   9.5040000000000E+05
(PID.TID 0000.0001) %MON dynstat_eta_max              =   1.3229570686150E+00
(PID.TID 0000.0001) %MON dynstat_eta_min              =  -9.6024426292301E-01
(PID.TID 0000.0001) %MON dynstat_eta_mean             =   5.8229911122694E-16
(PID.TID 0000.0001) %MON dynstat_eta_sd               =   3.8114690688741E-01
(PID.TID 0000.0001) %MON dynstat_eta_del2             =   1.9924747206755E-02
(PID.TID 0000.0001) %MON dynstat_uvel_max             =   1.8610299596644E-01
(PID.TID 0000.0001) %MON dynstat_uvel_min             =  -1.5369345180003E-01
(PID.TID 0000.0001) %MON dynstat_uvel_mean            =  -8.3633524512884E-03
(PID.TID 0000.0001) %MON dynstat_uvel_sd              =   1.8743862086521E-02
(PID.TID 0000.0001) %MON dynstat_uvel_del2            =   3.7120533619273E-03
(PID.TID 0000.0001) %MON dynstat_vvel_max             =   1.3293272108279E-01
(PID.TID 0000.0001) %MON dynstat_vvel_min             =  -1.5643768558650E-01
(PID.TID 0000.0001) %MON dynstat_vvel_mean            =   2.0168477525269E-03
(PID.TID 0000.0001) %MON dynstat_vvel_sd              =   1.3691395183872E-02
(PID.TID 0000.0001) %MON dynstat_vvel_del2            =   3.3966832867460E-03
(PID.TID 0000.0001) %MON dynstat_wvel_max             =   2.7040290077053E-04
(PID.TID 0000.0001) %MON dynstat_wvel_min             =  -2.6639058986338E-04
(PID.TID 0000.0001) %MON dynstat_wvel_mean            =  -3.3915681021353E-22
(PID.TID 0000.0001) %MON dynstat_wvel_sd              =   2.6591333688608E-05
(PID.TID 0000.0001) %MON dynstat_wvel_del2            =   8.6857283784207E-06
(PID.TID 0000.0001) %MON dynstat_theta_max            =   2.9394749226555E+01
(PID.TID 0000.0001) %MON dynstat_theta_min            =  -2.0506719683506E+00
(PID.TID 0000.0001) %MON dynstat_theta_mean           =   3.5942235849083E+00
(PID.TID 0000.0001) %MON dynstat_theta_sd             =   4.3497736255599E+00
(PID.TID 0000.0001) %MON dynstat_theta_del2           =   1.3991061311101E-01
(PID.TID 0000.0001) %MON dynstat_salt_max             =   3.7420233412547E+01
(PID.TID 0000.0001) %MON dynstat_salt_min             =   2.9780093044895E+01
(PID.TID 0000.0001) %MON dynstat_salt_mean            =   3.4716177425325E+01
(PID.TID 0000.0001) %MON dynstat_salt_sd              =   2.9581504992981E-01
(PID.TID 0000.0001) %MON dynstat_salt_del2            =   2.6086160300912E-02
(PID.TID 0000.0001) %MON dynstat_sst_max              =   2.9394749226555E+01
(PID.TID 0000.0001) %MON dynstat_sst_min              =  -1.9087246557244E+00
(PID.TID 0000.0001) %MON dynstat_sst_mean             =   1.8493199089402E+01
(PID.TID 0000.0001) %MON dynstat_sst_sd               =   8.9257019942872E+00
(PID.TID 0000.0001) %MON dynstat_sst_del2             =   2.7337516044954E-01
(PID.TID 0000.0001) %MON dynstat_sss_max              =   3.7420233412547E+01
(PID.TID 0000.0001) %MON dynstat_sss_min              =   2.9780093044895E+01
(PID.TID 0000.0001) %MON dynstat_sss_mean             =   3.4852743169619E+01
(PID.TID 0000.0001) %MON dynstat_sss_sd               =   9.6751923214061E-01
(PID.TID 0000.0001) %MON dynstat_sss_del2             =   8.1997664088583E-02
(PID.TID 0000.0001) %MON extforcing_qnet_max          =   4.3689677429199E+02
(PID.TID 0000.0001) %MON extforcing_qnet_min          =  -1.8212177810669E+02
(PID.TID 0000.0001) %MON extforcing_qnet_mean         =  -1.6568829802248E+01
(PID.TID 0000.0001) %MON extforcing_qnet_sd           =   1.1070524838440E+02
(PID.TID 0000.0001) %MON extforcing_qnet_del2         =   9.5728012133237E+00
(PID.TID 0000.0001) %MON extforcing_qsw_max           =   0.0000000000000E+00
(PID.TID 0000.0001) %MON extforcing_qsw_min           =   0.0000000000000E+00
(PID.TID 0000.0001) %MON extforcing_qsw_mean          =   0.0000000000000E+00
(PID.TID 0000.0001) %MON extforcing_qsw_sd            =   0.0000000000000E+00
(PID.TID 0000.0001) %MON extforcing_qsw_del2          =   0.0000000000000E+00
(PID.TID 0000.0001) %MON extforcing_empmr_max         =   0.0000000000000E+00
(PID.TID 0000.0001) %MON extforcing_empmr_min         =   0.0000000000000E+00
(PID.TID 0000.0001) %MON extforcing_empmr_mean        =   0.0000000000000E+00
(PID.TID 0000.0001) %MON extforcing_empmr_sd          =   0.0000000000000E+00
(PID.TID 0000.0001) %MON extforcing_empmr_del2        =   0.0000000000000E+00
(PID.TID 0000.0001) %MON extforcing_fu_max            =   2.7013971805573E-01
(PID.TID 0000.0001) %MON extforcing_fu_min            =  -1.6722018048167E-01
(PID.TID 0000.0001) %MON extforcing_fu_mean           =   1.6036352847233E-02
(PID.TID 0000.0001) %MON extforcing_fu_sd             =   9.0535354587419E-02
(PID.TID 0000.0001) %MON extforcing_fu_del2           =   7.4883428479521E-03
(PID.TID 0000.0001) %MON extforcing_fv_max            =   2.2466174736619E-01
(PID.TID 0000.0001) %MON extforcing_fv_min            =  -1.8076785877347E-01
(PID.TID 0000.0001) %MON extforcing_fv_mean           =  -5.5908291103787E-03
(PID.TID 0000.0001) %MON extforcing_fv_sd             =   4.6988037904400E-02
(PID.TID 0000.0001) %MON extforcing_fv_del2           =   4.5847159374167E-03
(PID.TID 0000.0001) %MON advcfl_uvel_max              =   2.6024898655705E-02
(PID.TID 0000.0001) %MON advcfl_vvel_max              =   1.5196666675311E-02
(PID.TID 0000.0001) %MON advcfl_wvel_max              =   1.5170551759406E-01
(PID.TID 0000.0001) %MON advcfl_W_hf_max              =   1.1815909173837E-01
(PID.TID 0000.0001) %MON pe_b_mean                    =   1.8589426840554E-04
(PID.TID 0000.0001) %MON ke_max                       =   1.6454118554960E-02
(PID.TID 0000.0001) %MON ke_mean                      =   2.7737559571184E-04
(PID.TID 0000.0001) %MON ke_vol                       =   1.3226782436723E+18
(PID.TID 0000.0001) %MON vort_r_min                   =  -4.5190259562496E-07
(PID.TID 0000.0001) %MON vort_r_max                   =   4.1431763500677E-07
(PID.TID 0000.0001) %MON vort_a_mean                  =  -2.5205769406096E-05
(PID.TID 0000.0001) %MON vort_a_sd                    =   7.3401593248019E-05
(PID.TID 0000.0001) %MON vort_p_mean                  =  -3.1758669573417E-05
(PID.TID 0000.0001) %MON vort_p_sd                    =   1.3126094910085E-04
(PID.TID 0000.0001) %MON surfExpan_theta_mean         =   1.1639386934994E-05
(PID.TID 0000.0001) %MON surfExpan_salt_mean          =  -1.9635635309950E-06
(PID.TID 0000.0001) // =======================================================
(PID.TID 0000.0001) // End MONITOR dynamic field statistics
(PID.TID 0000.0001) // =======================================================
time,SST,SSS,fu,fv,Q,E-P,i0,i1,a,b =   9.5040E+05  7.1702E-01  3.4621E+01 -3.6931E-02 -5.8989E-02  2.6559E+02  0.0000E+00    12     1  8.6667E-01  1.3333E-01
time,fu0,fu1,fu =   9.5040E+05 -4.5368E-02 -3.5633E-02 -3.6931E-02  8.666666666666667E-01  1.333333333333333E-01
 cg2d: Sum(rhs),rhsMax =  -6.54816478817821E-13  1.17644190526972E+01
(PID.TID 0000.0001)                    cg2d_init_res =    6.28019607174275E-01
(PID.TID 0000.0001)                       cg2d_iters =    25
(PID.TID 0000.0001)                         cg2d_res =    3.54869727429400E-14
(PID.TID 0000.0001) // =======================================================
(PID.TID 0000.0001) // Begin MONITOR dynamic field statistics
(PID.TID 0000.0001) // =======================================================
(PID.TID 0000.0001) %MON time_tsnumber                =                    23
(PID.TID 0000.0001) %MON time_secondsf                =   9.9360000000000E+05
(PID.TID 0000.0001) %MON dynstat_eta_max              =   1.3931227299059E+00
(PID.TID 0000.0001) %MON dynstat_eta_min              =  -9.1814513203379E-01
(PID.TID 0000.0001) %MON dynstat_eta_mean             =   7.2260192075580E-16
(PID.TID 0000.0001) %MON dynstat_eta_sd               =   3.7915610741266E-01
(PID.TID 0000.0001) %MON dynstat_eta_del2             =   1.9912894371264E-02
(PID.TID 0000.0001) %MON dynstat_uvel_max             =   1.8555495061172E-01
(PID.TID 0000.0001) %MON dynstat_uvel_min             =  -1.5867793694992E-01
(PID.TID 0000.0001) %MON dynstat_uvel_mean            =  -7.7554174168105E-03
(PID.TID 0000.0001) %MON dynstat_uvel_sd              =   1.8733644127225E-02
(PID.TID 0000.0001) %MON dynstat_uvel_del2            =   3.7240077425228E-03
(PID.TID 0000.0001) %MON dynstat_vvel_max             =   1.3681399243113E-01
(PID.TID 0000.0001) %MON dynstat_vvel_min             =  -1.5734609902347E-01
(PID.TID 0000.0001) %MON dynstat_vvel_mean            =   2.0014651136591E-03
(PID.TID 0000.0001) %MON dynstat_vvel_sd              =   1.3748980826836E-02
(PID.TID 0000.0001) %MON dynstat_vvel_del2            =   3.4132484382863E-03
(PID.TID 0000.0001) %MON dynstat_wvel_max             =   2.6962045199679E-04
(PID.TID 0000.0001) %MON dynstat_wvel_min             =  -2.5906172253252E-04
(PID.TID 0000.0001) %MON dynstat_wvel_mean            =   9.0950633462903E-22
(PID.TID 0000.0001) %MON dynstat_wvel_sd              =   2.6198649945927E-05
(PID.TID 0000.0001) %MON dynstat_wvel_del2            =   8.7171510848902E-06
(PID.TID 0000.0001) %MON dynstat_theta_max            =   2.9374534050891E+01
(PID.TID 0000.0001) %MON dynstat_theta_min            =  -2.0401518401658E+00
(PID.TID 0000.0001) %MON dynstat_theta_mean           =   3.5941995311774E+00
(PID.TID 0000.0001) %MON dynstat_theta_sd             =   4.3488749117666E+00
(PID.TID 0000.0001) %MON dynstat_theta_del2           =   1.3982473600529E-01
(PID.TID 0000.0001) %MON dynstat_salt_max             =   3.7419367191506E+01
(PID.TID 0000.0001) %MON dynstat_salt_min             =   2.9780174853103E+01
(PID.TID 0000.0001) %MON dynstat_salt_mean            =   3.4716204691566E+01
(PID.TID 0000.0001) %MON dynstat_salt_sd              =   2.9579343248144E-01
(PID.TID 0000.0001) %MON dynstat_salt_del2            =   2.6094356872922E-02
(PID.TID 0000.0001) %MON dynstat_sst_max              =   2.9374534050891E+01
(PID.TID 0000.0001) %MON dynstat_sst_min              =  -1.9086766266052E+00
(PID.TID 0000.0001) %MON dynstat_sst_mean             =   1.8495739976346E+01
(PID.TID 0000.0001) %MON dynstat_sst_sd               =   8.9233430873674E+00
(PID.TID 0000.0001) %MON dynstat_sst_del2             =   2.7321283521422E-01
(PID.TID 0000.0001) %MON dynstat_sss_max              =   3.7419367191506E+01
(PID.TID 0000.0001) %MON dynstat_sss_min              =   2.9780174853103E+01
(PID.TID 0000.0001) %MON dynstat_sss_mean             =   3.4853470491356E+01
(PID.TID 0000.0001) %MON dynstat_sss_sd               =   9.6712942887973E-01
(PID.TID 0000.0001) %MON dynstat_sss_del2             =   8.1871830328012E-02
(PID.TID 0000.0001) %MON extforcing_qnet_max          =   4.3742086791992E+02
(PID.TID 0000.0001) %MON extforcing_qnet_min          =  -1.8188829345703E+02
(PID.TID 0000.0001) %MON extforcing_qnet_mean         =  -1.6562573824336E+01
(PID.TID 0000.0001) %MON extforcing_qnet_sd           =   1.1061005498176E+02
(PID.TID 0000.0001) %MON extforcing_qnet_del2         =   9.5812729134055E+00
(PID.TID 0000.0001) %MON extforcing_qsw_max           =   0.0000000000000E+00
(PID.TID 0000.0001) %MON extforcing_qsw_min           =   0.0000000000000E+00
(PID.TID 0000.0001) %MON extforcing_qsw_mean          =   0.0000000000000E+00
(PID.TID 0000.0001) %MON extforcing_qsw_sd            =   0.0000000000000E+00
(PID.TID 0000.0001) %MON extforcing_qsw_del2          =   0.0000000000000E+00
(PID.TID 0000.0001) %MON extforcing_empmr_max         =   0.0000000000000E+00
(PID.TID 0000.0001) %MON extforcing_empmr_min         =   0.0000000000000E+00
(PID.TID 0000.0001) %MON extforcing_empmr_mean        =   0.0000000000000E+00
(PID.TID 0000.0001) %MON extforcing_empmr_sd          =   0.0000000000000E+00
(PID.TID 0000.0001) %MON extforcing_empmr_del2        =   0.0000000000000E+00
(PID.TID 0000.0001) %MON extforcing_fu_max            =   2.7018036246300E-01
(PID.TID 0000.0001) %MON extforcing_fu_min            =  -1.6762689054012E-01
(PID.TID 0000.0001) %MON extforcing_fu_mean           =   1.6032506436715E-02
(PID.TID 0000.0001) %MON extforcing_fu_sd             =   9.0583250401530E-02
(PID.TID 0000.0001) %MON extforcing_fu_del2           =   7.5065613175187E-03
(PID.TID 0000.0001) %MON extforcing_fv_max            =   2.2560169994831E-01
(PID.TID 0000.0001) %MON extforcing_fv_min            =  -1.8047553002834E-01
(PID.TID 0000.0001) %MON extforcing_fv_mean           =  -5.5539478469483E-03
(PID.TID 0000.0001) %MON extforcing_fv_sd             =   4.7114745146942E-02
(PID.TID 0000.0001) %MON extforcing_fv_del2           =   4.6102195979725E-03
(PID.TID 0000.0001) %MON advcfl_uvel_max              =   2.5948259240304E-02
(PID.TID 0000.0001) %MON advcfl_vvel_max              =   1.5284911756112E-02
(PID.TID 0000.0001) %MON advcfl_wvel_max              =   1.6668821295791E-01
(PID.TID 0000.0001) %MON advcfl_W_hf_max              =   1.2852526545037E-01
(PID.TID 0000.0001) %MON pe_b_mean                    =   1.8395742089403E-04
(PID.TID 0000.0001) %MON ke_max                       =   1.6881964305928E-02
(PID.TID 0000.0001) %MON ke_mean                      =   2.7343136785126E-04
(PID.TID 0000.0001) %MON ke_vol                       =   1.3226782436723E+18
(PID.TID 0000.0001) %MON vort_r_min                   =  -4.1901441500080E-07
(PID.TID 0000.0001) %MON vort_r_max                   =   4.0916703441821E-07
(PID.TID 0000.0001) %MON vort_a_mean                  =  -2.5205769392673E-05
(PID.TID 0000.0001) %MON vort_a_sd                    =   7.3401703776985E-05
(PID.TID 0000.0001) %MON vort_p_mean                  =  -3.1758669556504E-05
(PID.TID 0000.0001) %MON vort_p_sd                    =   1.3126131421930E-04
(PID.TID 0000.0001) %MON surfExpan_theta_mean         =   3.3961830887519E-06
(PID.TID 0000.0001) %MON surfExpan_salt_mean          =  -2.5821396922591E-06
(PID.TID 0000.0001) // =======================================================
(PID.TID 0000.0001) // End MONITOR dynamic field statistics
(PID.TID 0000.0001) // =======================================================
time,SST,SSS,fu,fv,Q,E-P,i0,i1,a,b =   9.9360E+05  7.4719E-01  3.4633E+01 -3.6769E-02 -5.8772E-02  2.6561E+02  0.0000E+00    12     1  8.8333E-01  1.1667E-01
time,fu0,fu1,fu =   9.9360E+05 -4.5368E-02 -3.5633E-02 -3.6769E-02  8.833333333333333E-01  1.166666666666667E-01
 cg2d: Sum(rhs),rhsMax =  -9.14143760688546E-13  1.21959720875389E+01
(PID.TID 0000.0001)                    cg2d_init_res =    5.89114178764244E-01
(PID.TID 0000.0001)                       cg2d_iters =    25
(PID.TID 0000.0001)                         cg2d_res =    3.41698632500996E-14
(PID.TID 0000.0001) // =======================================================
(PID.TID 0000.0001) // Begin MONITOR dynamic field statistics
(PID.TID 0000.0001) // =======================================================
(PID.TID 0000.0001) %MON time_tsnumber                =                    24
(PID.TID 0000.0001) %MON time_secondsf                =   1.0368000000000E+06
(PID.TID 0000.0001) %MON dynstat_eta_max              =   1.4416790957040E+00
(PID.TID 0000.0001) %MON dynstat_eta_min              =  -8.9921747098283E-01
(PID.TID 0000.0001) %MON dynstat_eta_mean             =   8.4906194426131E-16
(PID.TID 0000.0001) %MON dynstat_eta_sd               =   3.7663516308494E-01
(PID.TID 0000.0001) %MON dynstat_eta_del2             =   1.9913133033337E-02
(PID.TID 0000.0001) %MON dynstat_uvel_max             =   1.8349484759823E-01
(PID.TID 0000.0001) %MON dynstat_uvel_min             =  -1.6032076990394E-01
(PID.TID 0000.0001) %MON dynstat_uvel_mean            =  -7.1215920833035E-03
(PID.TID 0000.0001) %MON dynstat_uvel_sd              =   1.8660889342773E-02
(PID.TID 0000.0001) %MON dynstat_uvel_del2            =   3.7306155169014E-03
(PID.TID 0000.0001) %MON dynstat_vvel_max             =   1.4003854759615E-01
(PID.TID 0000.0001) %MON dynstat_vvel_min             =  -1.5921316724680E-01
(PID.TID 0000.0001) %MON dynstat_vvel_mean            =   2.0505350875671E-03
(PID.TID 0000.0001) %MON dynstat_vvel_sd              =   1.3825771703205E-02
(PID.TID 0000.0001) %MON dynstat_vvel_del2            =   3.4418651177775E-03
(PID.TID 0000.0001) %MON dynstat_wvel_max             =   2.6583328090668E-04
(PID.TID 0000.0001) %MON dynstat_wvel_min             =  -2.5142943722162E-04
(PID.TID 0000.0001) %MON dynstat_wvel_mean            =  -3.0229717514011E-22
(PID.TID 0000.0001) %MON dynstat_wvel_sd              =   2.5968952062590E-05
(PID.TID 0000.0001) %MON dynstat_wvel_del2            =   8.8036669186426E-06
(PID.TID 0000.0001) %MON dynstat_theta_max            =   2.9352496265892E+01
(PID.TID 0000.0001) %MON dynstat_theta_min            =  -2.0275910728542E+00
(PID.TID 0000.0001) %MON dynstat_theta_mean           =   3.5942580386533E+00
(PID.TID 0000.0001) %MON dynstat_theta_sd             =   4.3483211884713E+00
(PID.TID 0000.0001) %MON dynstat_theta_del2           =   1.3975987424804E-01
(PID.TID 0000.0001) %MON dynstat_salt_max             =   3.7418506699243E+01
(PID.TID 0000.0001) %MON dynstat_salt_min             =   2.9780604295420E+01
(PID.TID 0000.0001) %MON dynstat_salt_mean            =   3.4716237806461E+01
(PID.TID 0000.0001) %MON dynstat_salt_sd              =   2.9577334473955E-01
(PID.TID 0000.0001) %MON dynstat_salt_del2            =   2.6104721031813E-02
(PID.TID 0000.0001) %MON dynstat_sst_max              =   2.9352496265892E+01
(PID.TID 0000.0001) %MON dynstat_sst_min              =  -1.9085922022635E+00
(PID.TID 0000.0001) %MON dynstat_sst_mean             =   1.8498606973914E+01
(PID.TID 0000.0001) %MON dynstat_sst_sd               =   8.9222912268488E+00
(PID.TID 0000.0001) %MON dynstat_sst_del2             =   2.7338820678787E-01
(PID.TID 0000.0001) %MON dynstat_sss_max              =   3.7418506699243E+01
(PID.TID 0000.0001) %MON dynstat_sss_min              =   2.9780604295420E+01
(PID.TID 0000.0001) %MON dynstat_sss_mean             =   3.4854142356644E+01
(PID.TID 0000.0001) %MON dynstat_sss_sd               =   9.6679782534495E-01
(PID.TID 0000.0001) %MON dynstat_sss_del2             =   8.1804569364212E-02
(PID.TID 0000.0001) %MON extforcing_qnet_max          =   4.3794496154785E+02
(PID.TID 0000.0001) %MON extforcing_qnet_min          =  -1.8181792144775E+02
(PID.TID 0000.0001) %MON extforcing_qnet_mean         =  -1.6556317846425E+01
(PID.TID 0000.0001) %MON extforcing_qnet_sd           =   1.1051553465738E+02
(PID.TID 0000.0001) %MON extforcing_qnet_del2         =   9.5908814584780E+00
(PID.TID 0000.0001) %MON extforcing_qsw_max           =   0.0000000000000E+00
(PID.TID 0000.0001) %MON extforcing_qsw_min           =   0.0000000000000E+00
(PID.TID 0000.0001) %MON extforcing_qsw_mean          =   0.0000000000000E+00
(PID.TID 0000.0001) %MON extforcing_qsw_sd            =   0.0000000000000E+00
(PID.TID 0000.0001) %MON extforcing_qsw_del2          =   0.0000000000000E+00
(PID.TID 0000.0001) %MON extforcing_empmr_max         =   0.0000000000000E+00
(PID.TID 0000.0001) %MON extforcing_empmr_min         =   0.0000000000000E+00
(PID.TID 0000.0001) %MON extforcing_empmr_mean        =   0.0000000000000E+00
(PID.TID 0000.0001) %MON extforcing_empmr_sd          =   0.0000000000000E+00
(PID.TID 0000.0001) %MON extforcing_empmr_del2        =   0.0000000000000E+00
(PID.TID 0000.0001) %MON extforcing_fu_max            =   2.7022100687027E-01
(PID.TID 0000.0001) %MON extforcing_fu_min            =  -1.6803360059857E-01
(PID.TID 0000.0001) %MON extforcing_fu_mean           =   1.6028660026196E-02
(PID.TID 0000.0001) %MON extforcing_fu_sd             =   9.0633822271029E-02
(PID.TID 0000.0001) %MON extforcing_fu_del2           =   7.5259031036095E-03
(PID.TID 0000.0001) %MON extforcing_fv_max            =   2.2654165253043E-01
(PID.TID 0000.0001) %MON extforcing_fv_min            =  -1.8018320128322E-01
(PID.TID 0000.0001) %MON extforcing_fv_mean           =  -5.5170665835180E-03
(PID.TID 0000.0001) %MON extforcing_fv_sd             =   4.7244858175025E-02
(PID.TID 0000.0001) %MON extforcing_fv_del2           =   4.6375341493345E-03
(PID.TID 0000.0001) %MON advcfl_uvel_max              =   2.5660171604380E-02
(PID.TID 0000.0001) %MON advcfl_vvel_max              =   1.5466282461922E-02
(PID.TID 0000.0001) %MON advcfl_wvel_max              =   1.7491031398948E-01
(PID.TID 0000.0001) %MON advcfl_W_hf_max              =   1.3493501790590E-01
(PID.TID 0000.0001) %MON pe_b_mean                    =   1.8151935001888E-04
(PID.TID 0000.0001) %MON ke_max                       =   1.7208166439773E-02
(PID.TID 0000.0001) %MON ke_mean                      =   2.6895131126335E-04
(PID.TID 0000.0001) %MON ke_vol                       =   1.3226782436723E+18
(PID.TID 0000.0001) %MON vort_r_min                   =  -4.6523360532286E-07
(PID.TID 0000.0001) %MON vort_r_max                   =   4.1900246737018E-07
(PID.TID 0000.0001) %MON vort_a_mean                  =  -2.5205769393213E-05
(PID.TID 0000.0001) %MON vort_a_sd                    =   7.3401821488854E-05
(PID.TID 0000.0001) %MON vort_p_mean                  =  -3.1758669557184E-05
(PID.TID 0000.0001) %MON vort_p_sd                    =   1.3126168417829E-04
(PID.TID 0000.0001) %MON surfExpan_theta_mean         =  -3.2115164442448E-06
(PID.TID 0000.0001) %MON surfExpan_salt_mean          =  -3.0284187641237E-06
(PID.TID 0000.0001) // =======================================================
(PID.TID 0000.0001) // End MONITOR dynamic field statistics
(PID.TID 0000.0001) // =======================================================
time,SST,SSS,fu,fv,Q,E-P,i0,i1,a,b =   1.0368E+06  7.7737E-01  3.4644E+01 -3.6606E-02 -5.8556E-02  2.6564E+02  0.0000E+00    12     1  9.0000E-01  1.0000E-01
time,fu0,fu1,fu =   1.0368E+06 -4.5368E-02 -3.5633E-02 -3.6606E-02  9.000000000000000E-01  9.999999999999998E-02
 cg2d: Sum(rhs),rhsMax =  -1.04993444494106E-12  1.24221987652328E+01
(PID.TID 0000.0001)                    cg2d_init_res =    5.64309072852247E-01
(PID.TID 0000.0001)                       cg2d_iters =    25
(PID.TID 0000.0001)                         cg2d_res =    3.23868675769123E-14
(PID.TID 0000.0001) // =======================================================
(PID.TID 0000.0001) // Begin MONITOR dynamic field statistics
(PID.TID 0000.0001) // =======================================================
(PID.TID 0000.0001) %MON time_tsnumber                =                    25
(PID.TID 0000.0001) %MON time_secondsf                =   1.0800000000000E+06
(PID.TID 0000.0001) %MON dynstat_eta_max              =   1.4662869092018E+00
(PID.TID 0000.0001) %MON dynstat_eta_min              =  -8.9739589244838E-01
(PID.TID 0000.0001) %MON dynstat_eta_mean             =   6.7361975482699E-16
(PID.TID 0000.0001) %MON dynstat_eta_sd               =   3.7377974661358E-01
(PID.TID 0000.0001) %MON dynstat_eta_del2             =   1.9942065018668E-02
(PID.TID 0000.0001) %MON dynstat_uvel_max             =   1.8173283264204E-01
(PID.TID 0000.0001) %MON dynstat_uvel_min             =  -1.6295969102535E-01
(PID.TID 0000.0001) %MON dynstat_uvel_mean            =  -6.4786869928475E-03
(PID.TID 0000.0001) %MON dynstat_uvel_sd              =   1.8529420055912E-02
(PID.TID 0000.0001) %MON dynstat_uvel_del2            =   3.7348714739669E-03
(PID.TID 0000.0001) %MON dynstat_vvel_max             =   1.4265441370788E-01
(PID.TID 0000.0001) %MON dynstat_vvel_min             =  -1.6751896159349E-01
(PID.TID 0000.0001) %MON dynstat_vvel_mean            =   2.1578250131251E-03
(PID.TID 0000.0001) %MON dynstat_vvel_sd              =   1.3919413557573E-02
(PID.TID 0000.0001) %MON dynstat_vvel_del2            =   3.4731336042158E-03
(PID.TID 0000.0001) %MON dynstat_wvel_max             =   2.5929784679334E-04
(PID.TID 0000.0001) %MON dynstat_wvel_min             =  -2.4362814603908E-04
(PID.TID 0000.0001) %MON dynstat_wvel_mean            =  -1.2254280419618E-21
(PID.TID 0000.0001) %MON dynstat_wvel_sd              =   2.5881188639713E-05
(PID.TID 0000.0001) %MON dynstat_wvel_del2            =   8.9210356936151E-06
(PID.TID 0000.0001) %MON dynstat_theta_max            =   2.9329304920766E+01
(PID.TID 0000.0001) %MON dynstat_theta_min            =  -2.0135651088527E+00
(PID.TID 0000.0001) %MON dynstat_theta_mean           =   3.5943800432491E+00
(PID.TID 0000.0001) %MON dynstat_theta_sd             =   4.3480849294379E+00
(PID.TID 0000.0001) %MON dynstat_theta_del2           =   1.3976924974062E-01
(PID.TID 0000.0001) %MON dynstat_salt_max             =   3.7417643726097E+01
(PID.TID 0000.0001) %MON dynstat_salt_min             =   2.9781418535343E+01
(PID.TID 0000.0001) %MON dynstat_salt_mean            =   3.4716274766559E+01
(PID.TID 0000.0001) %MON dynstat_salt_sd              =   2.9575352888041E-01
(PID.TID 0000.0001) %MON dynstat_salt_del2            =   2.6118930870860E-02
(PID.TID 0000.0001) %MON dynstat_sst_max              =   2.9329304920766E+01
(PID.TID 0000.0001) %MON dynstat_sst_min              =  -1.9084823255005E+00
(PID.TID 0000.0001) %MON dynstat_sst_mean             =   1.8501662316997E+01
(PID.TID 0000.0001) %MON dynstat_sst_sd               =   8.9225915917960E+00
(PID.TID 0000.0001) %MON dynstat_sst_del2             =   2.7360621709903E-01
(PID.TID 0000.0001) %MON dynstat_sss_max              =   3.7417643726097E+01
(PID.TID 0000.0001) %MON dynstat_sss_min              =   2.9781418535343E+01
(PID.TID 0000.0001) %MON dynstat_sss_mean             =   3.4854737107881E+01
(PID.TID 0000.0001) %MON dynstat_sss_sd               =   9.6646505679162E-01
(PID.TID 0000.0001) %MON dynstat_sss_del2             =   8.1787015844845E-02
(PID.TID 0000.0001) %MON extforcing_qnet_max          =   4.3846905517578E+02
(PID.TID 0000.0001) %MON extforcing_qnet_min          =  -1.8174754943848E+02
(PID.TID 0000.0001) %MON extforcing_qnet_mean         =  -1.6550061868513E+01
(PID.TID 0000.0001) %MON extforcing_qnet_sd           =   1.1042168913970E+02
(PID.TID 0000.0001) %MON extforcing_qnet_del2         =   9.6008090278912E+00
(PID.TID 0000.0001) %MON extforcing_qsw_max           =   0.0000000000000E+00
(PID.TID 0000.0001) %MON extforcing_qsw_min           =   0.0000000000000E+00
(PID.TID 0000.0001) %MON extforcing_qsw_mean          =   0.0000000000000E+00
(PID.TID 0000.0001) %MON extforcing_qsw_sd            =   0.0000000000000E+00
(PID.TID 0000.0001) %MON extforcing_qsw_del2          =   0.0000000000000E+00
(PID.TID 0000.0001) %MON extforcing_empmr_max         =   0.0000000000000E+00
(PID.TID 0000.0001) %MON extforcing_empmr_min         =   0.0000000000000E+00
(PID.TID 0000.0001) %MON extforcing_empmr_mean        =   0.0000000000000E+00
(PID.TID 0000.0001) %MON extforcing_empmr_sd          =   0.0000000000000E+00
(PID.TID 0000.0001) %MON extforcing_empmr_del2        =   0.0000000000000E+00
(PID.TID 0000.0001) %MON extforcing_fu_max            =   2.7026165127754E-01
(PID.TID 0000.0001) %MON extforcing_fu_min            =  -1.6844031065702E-01
(PID.TID 0000.0001) %MON extforcing_fu_mean           =   1.6024813615678E-02
(PID.TID 0000.0001) %MON extforcing_fu_sd             =   9.0687065718989E-02
(PID.TID 0000.0001) %MON extforcing_fu_del2           =   7.5468441057421E-03
(PID.TID 0000.0001) %MON extforcing_fv_max            =   2.2748160511255E-01
(PID.TID 0000.0001) %MON extforcing_fv_min            =  -1.7989087253809E-01
(PID.TID 0000.0001) %MON extforcing_fv_mean           =  -5.4801853200875E-03
(PID.TID 0000.0001) %MON extforcing_fv_sd             =   4.7378348929193E-02
(PID.TID 0000.0001) %MON extforcing_fv_del2           =   4.6665786244369E-03
(PID.TID 0000.0001) %MON advcfl_uvel_max              =   2.5164369021301E-02
(PID.TID 0000.0001) %MON advcfl_vvel_max              =   1.6273123778240E-02
(PID.TID 0000.0001) %MON advcfl_wvel_max              =   1.7566550052546E-01
(PID.TID 0000.0001) %MON advcfl_W_hf_max              =   1.3559070562194E-01
(PID.TID 0000.0001) %MON pe_b_mean                    =   1.7877744684136E-04
(PID.TID 0000.0001) %MON ke_max                       =   1.7437008977486E-02
(PID.TID 0000.0001) %MON ke_mean                      =   2.6412671079331E-04
(PID.TID 0000.0001) %MON ke_vol                       =   1.3226782436723E+18
(PID.TID 0000.0001) %MON vort_r_min                   =  -5.0717257178230E-07
(PID.TID 0000.0001) %MON vort_r_max                   =   4.1022389955531E-07
(PID.TID 0000.0001) %MON vort_a_mean                  =  -2.5205769405415E-05
(PID.TID 0000.0001) %MON vort_a_sd                    =   7.3401943371392E-05
(PID.TID 0000.0001) %MON vort_p_mean                  =  -3.1758669572559E-05
(PID.TID 0000.0001) %MON vort_p_sd                    =   1.3126204791534E-04
(PID.TID 0000.0001) %MON surfExpan_theta_mean         =  -8.1527135321928E-06
(PID.TID 0000.0001) %MON surfExpan_salt_mean          =  -3.2956380875299E-06
(PID.TID 0000.0001) // =======================================================
(PID.TID 0000.0001) // End MONITOR dynamic field statistics
(PID.TID 0000.0001) // =======================================================
time,SST,SSS,fu,fv,Q,E-P,i0,i1,a,b =   1.0800E+06  8.0755E-01  3.4656E+01 -3.6444E-02 -5.8339E-02  2.6566E+02  0.0000E+00    12     1  9.1667E-01  8.3333E-02
time,fu0,fu1,fu =   1.0800E+06 -4.5368E-02 -3.5633E-02 -3.6444E-02  9.166666666666666E-01  8.333333333333337E-02
 cg2d: Sum(rhs),rhsMax =  -8.64761387497914E-13  1.24298971530992E+01
(PID.TID 0000.0001)                    cg2d_init_res =    5.54787978714112E-01
(PID.TID 0000.0001)                       cg2d_iters =    25
(PID.TID 0000.0001)                         cg2d_res =    3.04071792830497E-14
(PID.TID 0000.0001) // =======================================================
(PID.TID 0000.0001) // Begin MONITOR dynamic field statistics
(PID.TID 0000.0001) // =======================================================
(PID.TID 0000.0001) %MON time_tsnumber                =                    26
(PID.TID 0000.0001) %MON time_secondsf                =   1.1232000000000E+06
(PID.TID 0000.0001) %MON dynstat_eta_max              =   1.4654734647820E+00
(PID.TID 0000.0001) %MON dynstat_eta_min              =  -9.1626495988308E-01
(PID.TID 0000.0001) %MON dynstat_eta_mean             =   8.5641669819501E-16
(PID.TID 0000.0001) %MON dynstat_eta_sd               =   3.7078131823541E-01
(PID.TID 0000.0001) %MON dynstat_eta_del2             =   2.0097182973667E-02
(PID.TID 0000.0001) %MON dynstat_uvel_max             =   1.8290043312211E-01
(PID.TID 0000.0001) %MON dynstat_uvel_min             =  -1.6498044329088E-01
(PID.TID 0000.0001) %MON dynstat_uvel_mean            =  -5.8420639389925E-03
(PID.TID 0000.0001) %MON dynstat_uvel_sd              =   1.8342821605065E-02
(PID.TID 0000.0001) %MON dynstat_uvel_del2            =   3.7406552695581E-03
(PID.TID 0000.0001) %MON dynstat_vvel_max             =   1.4471029931067E-01
(PID.TID 0000.0001) %MON dynstat_vvel_min             =  -1.7148137213077E-01
(PID.TID 0000.0001) %MON dynstat_vvel_mean            =   2.3150673437655E-03
(PID.TID 0000.0001) %MON dynstat_vvel_sd              =   1.4027830074051E-02
(PID.TID 0000.0001) %MON dynstat_vvel_del2            =   3.5054461687056E-03
(PID.TID 0000.0001) %MON dynstat_wvel_max             =   2.5034824214061E-04
(PID.TID 0000.0001) %MON dynstat_wvel_min             =  -2.3574832841004E-04
(PID.TID 0000.0001) %MON dynstat_wvel_mean            =   3.5270106317611E-22
(PID.TID 0000.0001) %MON dynstat_wvel_sd              =   2.5908172974067E-05
(PID.TID 0000.0001) %MON dynstat_wvel_del2            =   9.0434429554611E-06
(PID.TID 0000.0001) %MON dynstat_theta_max            =   2.9305712246904E+01
(PID.TID 0000.0001) %MON dynstat_theta_min            =  -1.9987410217934E+00
(PID.TID 0000.0001) %MON dynstat_theta_mean           =   3.5945465421415E+00
(PID.TID 0000.0001) %MON dynstat_theta_sd             =   4.3481333737698E+00
(PID.TID 0000.0001) %MON dynstat_theta_del2           =   1.3970846272080E-01
(PID.TID 0000.0001) %MON dynstat_salt_max             =   3.7416763708267E+01
(PID.TID 0000.0001) %MON dynstat_salt_min             =   2.9782637234375E+01
(PID.TID 0000.0001) %MON dynstat_salt_mean            =   3.4716313511382E+01
(PID.TID 0000.0001) %MON dynstat_salt_sd              =   2.9573354904439E-01
(PID.TID 0000.0001) %MON dynstat_salt_del2            =   2.6126911719877E-02
(PID.TID 0000.0001) %MON dynstat_sst_max              =   2.9305712246904E+01
(PID.TID 0000.0001) %MON dynstat_sst_min              =  -1.9083572790097E+00
(PID.TID 0000.0001) %MON dynstat_sst_mean             =   1.8504833992714E+01
(PID.TID 0000.0001) %MON dynstat_sst_sd               =   8.9241354786734E+00
(PID.TID 0000.0001) %MON dynstat_sst_del2             =   2.7321485711007E-01
(PID.TID 0000.0001) %MON dynstat_sss_max              =   3.7416763708267E+01
(PID.TID 0000.0001) %MON dynstat_sss_min              =   2.9782637234375E+01
(PID.TID 0000.0001) %MON dynstat_sss_mean             =   3.4855208518576E+01
(PID.TID 0000.0001) %MON dynstat_sss_sd               =   9.6614183878404E-01
(PID.TID 0000.0001) %MON dynstat_sss_del2             =   8.1700775803454E-02
(PID.TID 0000.0001) %MON extforcing_qnet_max          =   4.3899314880371E+02
(PID.TID 0000.0001) %MON extforcing_qnet_min          =  -1.8167717742920E+02
(PID.TID 0000.0001) %MON extforcing_qnet_mean         =  -1.6543805890602E+01
(PID.TID 0000.0001) %MON extforcing_qnet_sd           =   1.1032852015070E+02
(PID.TID 0000.0001) %MON extforcing_qnet_del2         =   9.6110353677757E+00
(PID.TID 0000.0001) %MON extforcing_qsw_max           =   0.0000000000000E+00
(PID.TID 0000.0001) %MON extforcing_qsw_min           =   0.0000000000000E+00
(PID.TID 0000.0001) %MON extforcing_qsw_mean          =   0.0000000000000E+00
(PID.TID 0000.0001) %MON extforcing_qsw_sd            =   0.0000000000000E+00
(PID.TID 0000.0001) %MON extforcing_qsw_del2          =   0.0000000000000E+00
(PID.TID 0000.0001) %MON extforcing_empmr_max         =   0.0000000000000E+00
(PID.TID 0000.0001) %MON extforcing_empmr_min         =   0.0000000000000E+00
(PID.TID 0000.0001) %MON extforcing_empmr_mean        =   0.0000000000000E+00
(PID.TID 0000.0001) %MON extforcing_empmr_sd          =   0.0000000000000E+00
(PID.TID 0000.0001) %MON extforcing_empmr_del2        =   0.0000000000000E+00
(PID.TID 0000.0001) %MON extforcing_fu_max            =   2.7047514170408E-01
(PID.TID 0000.0001) %MON extforcing_fu_min            =  -1.6884702071548E-01
(PID.TID 0000.0001) %MON extforcing_fu_mean           =   1.6020967205159E-02
(PID.TID 0000.0001) %MON extforcing_fu_sd             =   9.0742976042764E-02
(PID.TID 0000.0001) %MON extforcing_fu_del2           =   7.5684254918198E-03
(PID.TID 0000.0001) %MON extforcing_fv_max            =   2.2842155769467E-01
(PID.TID 0000.0001) %MON extforcing_fv_min            =  -1.7959854379296E-01
(PID.TID 0000.0001) %MON extforcing_fv_mean           =  -5.4433040566572E-03
(PID.TID 0000.0001) %MON extforcing_fv_sd             =   4.7515188940965E-02
(PID.TID 0000.0001) %MON extforcing_fv_del2           =   4.6964210649275E-03
(PID.TID 0000.0001) %MON advcfl_uvel_max              =   2.4466991305185E-02
(PID.TID 0000.0001) %MON advcfl_vvel_max              =   1.6658040187224E-02
(PID.TID 0000.0001) %MON advcfl_wvel_max              =   1.6867029948155E-01
(PID.TID 0000.0001) %MON advcfl_W_hf_max              =   1.3027039417320E-01
(PID.TID 0000.0001) %MON pe_b_mean                    =   1.7592067733333E-04
(PID.TID 0000.0001) %MON ke_max                       =   1.7570458186041E-02
(PID.TID 0000.0001) %MON ke_mean                      =   2.5911341407855E-04
(PID.TID 0000.0001) %MON ke_vol                       =   1.3226782436723E+18
(PID.TID 0000.0001) %MON vort_r_min                   =  -5.3763941795480E-07
(PID.TID 0000.0001) %MON vort_r_max                   =   3.9734710313879E-07
(PID.TID 0000.0001) %MON vort_a_mean                  =  -2.5205769426015E-05
(PID.TID 0000.0001) %MON vort_a_sd                    =   7.3402066603915E-05
(PID.TID 0000.0001) %MON vort_p_mean                  =  -3.1758669598515E-05
(PID.TID 0000.0001) %MON vort_p_sd                    =   1.3126239683918E-04
(PID.TID 0000.0001) %MON surfExpan_theta_mean         =  -1.1457253829207E-05
(PID.TID 0000.0001) %MON surfExpan_salt_mean          =  -3.3830419331967E-06
(PID.TID 0000.0001) // =======================================================
(PID.TID 0000.0001) // End MONITOR dynamic field statistics
(PID.TID 0000.0001) // =======================================================
time,SST,SSS,fu,fv,Q,E-P,i0,i1,a,b =   1.1232E+06  8.3772E-01  3.4668E+01 -3.6282E-02 -5.8123E-02  2.6568E+02  0.0000E+00    12     1  9.3333E-01  6.6667E-02
time,fu0,fu1,fu =   1.1232E+06 -4.5368E-02 -3.5633E-02 -3.6282E-02  9.333333333333333E-01  6.666666666666665E-02
 cg2d: Sum(rhs),rhsMax =  -8.25887969124750E-13  1.22139653314085E+01
(PID.TID 0000.0001)                    cg2d_init_res =    5.61986700615063E-01
(PID.TID 0000.0001)                       cg2d_iters =    25
(PID.TID 0000.0001)                         cg2d_res =    2.83429230157907E-14
(PID.TID 0000.0001) // =======================================================
(PID.TID 0000.0001) // Begin MONITOR dynamic field statistics
(PID.TID 0000.0001) // =======================================================
(PID.TID 0000.0001) %MON time_tsnumber                =                    27
(PID.TID 0000.0001) %MON time_secondsf                =   1.1664000000000E+06
(PID.TID 0000.0001) %MON dynstat_eta_max              =   1.4386988329384E+00
(PID.TID 0000.0001) %MON dynstat_eta_min              =  -9.3541118271663E-01
(PID.TID 0000.0001) %MON dynstat_eta_mean             =   7.8058030566172E-16
(PID.TID 0000.0001) %MON dynstat_eta_sd               =   3.6783953190049E-01
(PID.TID 0000.0001) %MON dynstat_eta_del2             =   2.0446303005061E-02
(PID.TID 0000.0001) %MON dynstat_uvel_max             =   1.8253708113575E-01
(PID.TID 0000.0001) %MON dynstat_uvel_min             =  -1.6635884988186E-01
(PID.TID 0000.0001) %MON dynstat_uvel_mean            =  -5.2253982714047E-03
(PID.TID 0000.0001) %MON dynstat_uvel_sd              =   1.8104909893871E-02
(PID.TID 0000.0001) %MON dynstat_uvel_del2            =   3.7449388806459E-03
(PID.TID 0000.0001) %MON dynstat_vvel_max             =   1.4624713738979E-01
(PID.TID 0000.0001) %MON dynstat_vvel_min             =  -1.7087426150267E-01
(PID.TID 0000.0001) %MON dynstat_vvel_mean            =   2.5125059864478E-03
(PID.TID 0000.0001) %MON dynstat_vvel_sd              =   1.4147501329216E-02
(PID.TID 0000.0001) %MON dynstat_vvel_del2            =   3.5376110544514E-03
(PID.TID 0000.0001) %MON dynstat_wvel_max             =   2.4310163011990E-04
(PID.TID 0000.0001) %MON dynstat_wvel_min             =  -2.2783296813955E-04
(PID.TID 0000.0001) %MON dynstat_wvel_mean            =   3.1666715732648E-22
(PID.TID 0000.0001) %MON dynstat_wvel_sd              =   2.6015824640803E-05
(PID.TID 0000.0001) %MON dynstat_wvel_del2            =   9.1663524281670E-06
(PID.TID 0000.0001) %MON dynstat_theta_max            =   2.9282504395014E+01
(PID.TID 0000.0001) %MON dynstat_theta_min            =  -1.9974977604292E+00
(PID.TID 0000.0001) %MON dynstat_theta_mean           =   3.5947392838455E+00
(PID.TID 0000.0001) %MON dynstat_theta_sd             =   4.3484265375345E+00
(PID.TID 0000.0001) %MON dynstat_theta_del2           =   1.3968543522924E-01
(PID.TID 0000.0001) %MON dynstat_salt_max             =   3.7415851288928E+01
(PID.TID 0000.0001) %MON dynstat_salt_min             =   2.9784262768913E+01
(PID.TID 0000.0001) %MON dynstat_salt_mean            =   3.4716352014765E+01
(PID.TID 0000.0001) %MON dynstat_salt_sd              =   2.9571189628056E-01
(PID.TID 0000.0001) %MON dynstat_salt_del2            =   2.6136408201070E-02
(PID.TID 0000.0001) %MON dynstat_sst_max              =   2.9282504395014E+01
(PID.TID 0000.0001) %MON dynstat_sst_min              =  -1.9082257044799E+00
(PID.TID 0000.0001) %MON dynstat_sst_mean             =   1.8508379361905E+01
(PID.TID 0000.0001) %MON dynstat_sst_sd               =   8.9264294431043E+00
(PID.TID 0000.0001) %MON dynstat_sst_del2             =   2.7355853313250E-01
(PID.TID 0000.0001) %MON dynstat_sss_max              =   3.7415851288928E+01
(PID.TID 0000.0001) %MON dynstat_sss_min              =   2.9784262768913E+01
(PID.TID 0000.0001) %MON dynstat_sss_mean             =   3.4855587800219E+01
(PID.TID 0000.0001) %MON dynstat_sss_sd               =   9.6580678657102E-01
(PID.TID 0000.0001) %MON dynstat_sss_del2             =   8.1775896941267E-02
(PID.TID 0000.0001) %MON extforcing_qnet_max          =   4.3951724243164E+02
(PID.TID 0000.0001) %MON extforcing_qnet_min          =  -1.8160680541992E+02
(PID.TID 0000.0001) %MON extforcing_qnet_mean         =  -1.6537549912690E+01
(PID.TID 0000.0001) %MON extforcing_qnet_sd           =   1.1023602940575E+02
(PID.TID 0000.0001) %MON extforcing_qnet_del2         =   9.6214528970052E+00
(PID.TID 0000.0001) %MON extforcing_qsw_max           =   0.0000000000000E+00
(PID.TID 0000.0001) %MON extforcing_qsw_min           =   0.0000000000000E+00
(PID.TID 0000.0001) %MON extforcing_qsw_mean          =   0.0000000000000E+00
(PID.TID 0000.0001) %MON extforcing_qsw_sd            =   0.0000000000000E+00
(PID.TID 0000.0001) %MON extforcing_qsw_del2          =   0.0000000000000E+00
(PID.TID 0000.0001) %MON extforcing_empmr_max         =   0.0000000000000E+00
(PID.TID 0000.0001) %MON extforcing_empmr_min         =   0.0000000000000E+00
(PID.TID 0000.0001) %MON extforcing_empmr_mean        =   0.0000000000000E+00
(PID.TID 0000.0001) %MON extforcing_empmr_sd          =   0.0000000000000E+00
(PID.TID 0000.0001) %MON extforcing_empmr_del2        =   0.0000000000000E+00
(PID.TID 0000.0001) %MON extforcing_fu_max            =   2.7213588953018E-01
(PID.TID 0000.0001) %MON extforcing_fu_min            =  -1.6925373077393E-01
(PID.TID 0000.0001) %MON extforcing_fu_mean           =   1.6017120794640E-02
(PID.TID 0000.0001) %MON extforcing_fu_sd             =   9.0801548316031E-02
(PID.TID 0000.0001) %MON extforcing_fu_del2           =   7.5911469103871E-03
(PID.TID 0000.0001) %MON extforcing_fv_max            =   2.2936151027679E-01
(PID.TID 0000.0001) %MON extforcing_fv_min            =  -1.7930621504784E-01
(PID.TID 0000.0001) %MON extforcing_fv_mean           =  -5.4064227932267E-03
(PID.TID 0000.0001) %MON extforcing_fv_sd             =   4.7655349358660E-02
(PID.TID 0000.0001) %MON extforcing_fv_del2           =   4.7267771735577E-03
(PID.TID 0000.0001) %MON advcfl_uvel_max              =   2.3860777943975E-02
(PID.TID 0000.0001) %MON advcfl_vvel_max              =   1.6599064258147E-02
(PID.TID 0000.0001) %MON advcfl_wvel_max              =   1.6267328660589E-01
(PID.TID 0000.0001) %MON advcfl_W_hf_max              =   1.1909130931426E-01
(PID.TID 0000.0001) %MON pe_b_mean                    =   1.7314023501792E-04
(PID.TID 0000.0001) %MON ke_max                       =   1.7607804584352E-02
(PID.TID 0000.0001) %MON ke_mean                      =   2.5401487514676E-04
(PID.TID 0000.0001) %MON ke_vol                       =   1.3226782436723E+18
(PID.TID 0000.0001) %MON vort_r_min                   =  -5.5660821351079E-07
(PID.TID 0000.0001) %MON vort_r_max                   =   3.8879089246403E-07
(PID.TID 0000.0001) %MON vort_a_mean                  =  -2.5205769451260E-05
(PID.TID 0000.0001) %MON vort_a_sd                    =   7.3402188598211E-05
(PID.TID 0000.0001) %MON vort_p_mean                  =  -3.1758669630322E-05
(PID.TID 0000.0001) %MON vort_p_sd                    =   1.3126272453076E-04
(PID.TID 0000.0001) %MON surfExpan_theta_mean         =  -1.3216507718286E-05
(PID.TID 0000.0001) %MON surfExpan_salt_mean          =  -3.2959153361689E-06
(PID.TID 0000.0001) // =======================================================
(PID.TID 0000.0001) // End MONITOR dynamic field statistics
(PID.TID 0000.0001) // =======================================================
time,SST,SSS,fu,fv,Q,E-P,i0,i1,a,b =   1.1664E+06  8.6790E-01  3.4679E+01 -3.6120E-02 -5.7906E-02  2.6570E+02  0.0000E+00    12     1  9.5000E-01  5.0000E-02
time,fu0,fu1,fu =   1.1664E+06 -4.5368E-02 -3.5633E-02 -3.6120E-02  9.500000000000000E-01  5.000000000000004E-02
 cg2d: Sum(rhs),rhsMax =  -8.79071121451247E-13  1.17775992284494E+01
(PID.TID 0000.0001)                    cg2d_init_res =    5.87009960084963E-01
(PID.TID 0000.0001)                       cg2d_iters =    25
(PID.TID 0000.0001)                         cg2d_res =    2.50829286098804E-14
(PID.TID 0000.0001) // =======================================================
(PID.TID 0000.0001) // Begin MONITOR dynamic field statistics
(PID.TID 0000.0001) // =======================================================
(PID.TID 0000.0001) %MON time_tsnumber                =                    28
(PID.TID 0000.0001) %MON time_secondsf                =   1.2096000000000E+06
(PID.TID 0000.0001) %MON dynstat_eta_max              =   1.3863803127033E+00
(PID.TID 0000.0001) %MON dynstat_eta_min              =  -9.5416641735448E-01
(PID.TID 0000.0001) %MON dynstat_eta_mean             =   7.3017954602083E-16
(PID.TID 0000.0001) %MON dynstat_eta_sd               =   3.6516849297289E-01
(PID.TID 0000.0001) %MON dynstat_eta_del2             =   2.0861310352012E-02
(PID.TID 0000.0001) %MON dynstat_uvel_max             =   1.8062294506486E-01
(PID.TID 0000.0001) %MON dynstat_uvel_min             =  -1.6708169905967E-01
(PID.TID 0000.0001) %MON dynstat_uvel_mean            =  -4.6405020868630E-03
(PID.TID 0000.0001) %MON dynstat_uvel_sd              =   1.7820152372898E-02
(PID.TID 0000.0001) %MON dynstat_uvel_del2            =   3.7405722588565E-03
(PID.TID 0000.0001) %MON dynstat_vvel_max             =   1.4729562313934E-01
(PID.TID 0000.0001) %MON dynstat_vvel_min             =  -1.6566666239883E-01
(PID.TID 0000.0001) %MON dynstat_vvel_mean            =   2.7394070600626E-03
(PID.TID 0000.0001) %MON dynstat_vvel_sd              =   1.4272384324225E-02
(PID.TID 0000.0001) %MON dynstat_vvel_del2            =   3.5673058393290E-03
(PID.TID 0000.0001) %MON dynstat_wvel_max             =   2.3642571171165E-04
(PID.TID 0000.0001) %MON dynstat_wvel_min             =  -2.1987881213863E-04
(PID.TID 0000.0001) %MON dynstat_wvel_mean            =  -8.2389426996721E-22
(PID.TID 0000.0001) %MON dynstat_wvel_sd              =   2.6162979073671E-05
(PID.TID 0000.0001) %MON dynstat_wvel_del2            =   9.2764223828398E-06
(PID.TID 0000.0001) %MON dynstat_theta_max            =   2.9293943354797E+01
(PID.TID 0000.0001) %MON dynstat_theta_min            =  -1.9999785609470E+00
(PID.TID 0000.0001) %MON dynstat_theta_mean           =   3.5949414132100E+00
(PID.TID 0000.0001) %MON dynstat_theta_sd             =   4.3489226580395E+00
(PID.TID 0000.0001) %MON dynstat_theta_del2           =   1.3971495931650E-01
(PID.TID 0000.0001) %MON dynstat_salt_max             =   3.7414894390187E+01
(PID.TID 0000.0001) %MON dynstat_salt_min             =   2.9786281296534E+01
(PID.TID 0000.0001) %MON dynstat_salt_mean            =   3.4716388348138E+01
(PID.TID 0000.0001) %MON dynstat_salt_sd              =   2.9568882880185E-01
(PID.TID 0000.0001) %MON dynstat_salt_del2            =   2.6150900032290E-02
(PID.TID 0000.0001) %MON dynstat_sst_max              =   2.9293943354797E+01
(PID.TID 0000.0001) %MON dynstat_sst_min              =  -1.9080942500453E+00
(PID.TID 0000.0001) %MON dynstat_sst_mean             =   1.8511630766556E+01
(PID.TID 0000.0001) %MON dynstat_sst_sd               =   8.9297347046411E+00
(PID.TID 0000.0001) %MON dynstat_sst_del2             =   2.7354666843155E-01
(PID.TID 0000.0001) %MON dynstat_sss_max              =   3.7414894390187E+01
(PID.TID 0000.0001) %MON dynstat_sss_min              =   2.9786281296534E+01
(PID.TID 0000.0001) %MON dynstat_sss_mean             =   3.4855755469365E+01
(PID.TID 0000.0001) %MON dynstat_sss_sd               =   9.6551530641550E-01
(PID.TID 0000.0001) %MON dynstat_sss_del2             =   8.1787028586273E-02
(PID.TID 0000.0001) %MON extforcing_qnet_max          =   4.4004133605957E+02
(PID.TID 0000.0001) %MON extforcing_qnet_min          =  -1.8153643341064E+02
(PID.TID 0000.0001) %MON extforcing_qnet_mean         =  -1.6531293934779E+01
(PID.TID 0000.0001) %MON extforcing_qnet_sd           =   1.1014421861345E+02
(PID.TID 0000.0001) %MON extforcing_qnet_del2         =   9.6322938738837E+00
(PID.TID 0000.0001) %MON extforcing_qsw_max           =   0.0000000000000E+00
(PID.TID 0000.0001) %MON extforcing_qsw_min           =   0.0000000000000E+00
(PID.TID 0000.0001) %MON extforcing_qsw_mean          =   0.0000000000000E+00
(PID.TID 0000.0001) %MON extforcing_qsw_sd            =   0.0000000000000E+00
(PID.TID 0000.0001) %MON extforcing_qsw_del2          =   0.0000000000000E+00
(PID.TID 0000.0001) %MON extforcing_empmr_max         =   0.0000000000000E+00
(PID.TID 0000.0001) %MON extforcing_empmr_min         =   0.0000000000000E+00
(PID.TID 0000.0001) %MON extforcing_empmr_mean        =   0.0000000000000E+00
(PID.TID 0000.0001) %MON extforcing_empmr_sd          =   0.0000000000000E+00
(PID.TID 0000.0001) %MON extforcing_empmr_del2        =   0.0000000000000E+00
(PID.TID 0000.0001) %MON extforcing_fu_max            =   2.7379663735628E-01
(PID.TID 0000.0001) %MON extforcing_fu_min            =  -1.6966044083238E-01
(PID.TID 0000.0001) %MON extforcing_fu_mean           =   1.6013274384122E-02
(PID.TID 0000.0001) %MON extforcing_fu_sd             =   9.0862777390927E-02
(PID.TID 0000.0001) %MON extforcing_fu_del2           =   7.6145278787288E-03
(PID.TID 0000.0001) %MON extforcing_fv_max            =   2.3030146285892E-01
(PID.TID 0000.0001) %MON extforcing_fv_min            =  -1.7901388630271E-01
(PID.TID 0000.0001) %MON extforcing_fv_mean           =  -5.3695415297964E-03
(PID.TID 0000.0001) %MON extforcing_fv_sd             =   4.7798800973010E-02
(PID.TID 0000.0001) %MON extforcing_fv_del2           =   4.7578813107966E-03
(PID.TID 0000.0001) %MON advcfl_uvel_max              =   2.3610566998025E-02
(PID.TID 0000.0001) %MON advcfl_vvel_max              =   1.6093187765133E-02
(PID.TID 0000.0001) %MON advcfl_wvel_max              =   1.5162268692583E-01
(PID.TID 0000.0001) %MON advcfl_W_hf_max              =   1.1351986079645E-01
(PID.TID 0000.0001) %MON pe_b_mean                    =   1.7063487497411E-04
(PID.TID 0000.0001) %MON ke_max                       =   1.7852330211911E-02
(PID.TID 0000.0001) %MON ke_mean                      =   2.4887398870536E-04
(PID.TID 0000.0001) %MON ke_vol                       =   1.3226782436723E+18
(PID.TID 0000.0001) %MON vort_r_min                   =  -5.6316760282999E-07
(PID.TID 0000.0001) %MON vort_r_max                   =   3.8574041717279E-07
(PID.TID 0000.0001) %MON vort_a_mean                  =  -2.5205769477306E-05
(PID.TID 0000.0001) %MON vort_a_sd                    =   7.3402307030948E-05
(PID.TID 0000.0001) %MON vort_p_mean                  =  -3.1758669663140E-05
(PID.TID 0000.0001) %MON vort_p_sd                    =   1.3126302659258E-04
(PID.TID 0000.0001) %MON surfExpan_theta_mean         =  -1.3557334242104E-05
(PID.TID 0000.0001) %MON surfExpan_salt_mean          =  -3.0439195660664E-06
(PID.TID 0000.0001) // =======================================================
(PID.TID 0000.0001) // End MONITOR dynamic field statistics
(PID.TID 0000.0001) // =======================================================
time,SST,SSS,fu,fv,Q,E-P,i0,i1,a,b =   1.2096E+06  8.9807E-01  3.4691E+01 -3.5957E-02 -5.7690E-02  2.6573E+02  0.0000E+00    12     1  9.6667E-01  3.3333E-02
time,fu0,fu1,fu =   1.2096E+06 -4.5368E-02 -3.5633E-02 -3.5957E-02  9.666666666666667E-01  3.333333333333333E-02
 cg2d: Sum(rhs),rhsMax =  -8.67771132728734E-13  1.11321543546077E+01
(PID.TID 0000.0001)                    cg2d_init_res =    6.30592654070360E-01
(PID.TID 0000.0001)                       cg2d_iters =    25
(PID.TID 0000.0001)                         cg2d_res =    2.30917113075127E-14
(PID.TID 0000.0001) // =======================================================
(PID.TID 0000.0001) // Begin MONITOR dynamic field statistics
(PID.TID 0000.0001) // =======================================================
(PID.TID 0000.0001) %MON time_tsnumber                =                    29
(PID.TID 0000.0001) %MON time_secondsf                =   1.2528000000000E+06
(PID.TID 0000.0001) %MON dynstat_eta_max              =   1.3098783416257E+00
(PID.TID 0000.0001) %MON dynstat_eta_min              =  -9.7193805758618E-01
(PID.TID 0000.0001) %MON dynstat_eta_mean             =   6.5986540980813E-16
(PID.TID 0000.0001) %MON dynstat_eta_sd               =   3.6299223437194E-01
(PID.TID 0000.0001) %MON dynstat_eta_del2             =   2.1255253284118E-02
(PID.TID 0000.0001) %MON dynstat_uvel_max             =   1.7716116891419E-01
(PID.TID 0000.0001) %MON dynstat_uvel_min             =  -1.6714977364302E-01
(PID.TID 0000.0001) %MON dynstat_uvel_mean            =  -4.0972141100931E-03
(PID.TID 0000.0001) %MON dynstat_uvel_sd              =   1.7494011273121E-02
(PID.TID 0000.0001) %MON dynstat_uvel_del2            =   3.7253263767160E-03
(PID.TID 0000.0001) %MON dynstat_vvel_max             =   1.4787824456215E-01
(PID.TID 0000.0001) %MON dynstat_vvel_min             =  -1.5603468826151E-01
(PID.TID 0000.0001) %MON dynstat_vvel_mean            =   2.9845801420151E-03
(PID.TID 0000.0001) %MON dynstat_vvel_sd              =   1.4393809528799E-02
(PID.TID 0000.0001) %MON dynstat_vvel_del2            =   3.5935796818873E-03
(PID.TID 0000.0001) %MON dynstat_wvel_max             =   2.3221417131652E-04
(PID.TID 0000.0001) %MON dynstat_wvel_min             =  -2.1402691433175E-04
(PID.TID 0000.0001) %MON dynstat_wvel_mean            =   1.1193218367038E-23
(PID.TID 0000.0001) %MON dynstat_wvel_sd              =   2.6303185800433E-05
(PID.TID 0000.0001) %MON dynstat_wvel_del2            =   9.3465512072545E-06
(PID.TID 0000.0001) %MON dynstat_theta_max            =   2.9316509622808E+01
(PID.TID 0000.0001) %MON dynstat_theta_min            =  -2.0024825328966E+00
(PID.TID 0000.0001) %MON dynstat_theta_mean           =   3.5951378776821E+00
(PID.TID 0000.0001) %MON dynstat_theta_sd             =   4.3495773003227E+00
(PID.TID 0000.0001) %MON dynstat_theta_del2           =   1.3972590269733E-01
(PID.TID 0000.0001) %MON dynstat_salt_max             =   3.7413886932048E+01
(PID.TID 0000.0001) %MON dynstat_salt_min             =   2.9788664555153E+01
(PID.TID 0000.0001) %MON dynstat_salt_mean            =   3.4716420729011E+01
(PID.TID 0000.0001) %MON dynstat_salt_sd              =   2.9566376161085E-01
(PID.TID 0000.0001) %MON dynstat_salt_del2            =   2.6154696983560E-02
(PID.TID 0000.0001) %MON dynstat_sst_max              =   2.9316509622808E+01
(PID.TID 0000.0001) %MON dynstat_sst_min              =  -1.9081240493383E+00
(PID.TID 0000.0001) %MON dynstat_sst_mean             =   1.8514720387437E+01
(PID.TID 0000.0001) %MON dynstat_sst_sd               =   8.9339580137782E+00
(PID.TID 0000.0001) %MON dynstat_sst_del2             =   2.7361850271414E-01
(PID.TID 0000.0001) %MON dynstat_sss_max              =   3.7413886932048E+01
(PID.TID 0000.0001) %MON dynstat_sss_min              =   2.9788664555153E+01
(PID.TID 0000.0001) %MON dynstat_sss_mean             =   3.4855727971975E+01
(PID.TID 0000.0001) %MON dynstat_sss_sd               =   9.6531395465537E-01
(PID.TID 0000.0001) %MON dynstat_sss_del2             =   8.1768949544484E-02
(PID.TID 0000.0001) %MON extforcing_qnet_max          =   4.4056542968750E+02
(PID.TID 0000.0001) %MON extforcing_qnet_min          =  -1.8146606140137E+02
(PID.TID 0000.0001) %MON extforcing_qnet_mean         =  -1.6525037956867E+01
(PID.TID 0000.0001) %MON extforcing_qnet_sd           =   1.1005308947553E+02
(PID.TID 0000.0001) %MON extforcing_qnet_del2         =   9.6438151725511E+00
(PID.TID 0000.0001) %MON extforcing_qsw_max           =   0.0000000000000E+00
(PID.TID 0000.0001) %MON extforcing_qsw_min           =   0.0000000000000E+00
(PID.TID 0000.0001) %MON extforcing_qsw_mean          =   0.0000000000000E+00
(PID.TID 0000.0001) %MON extforcing_qsw_sd            =   0.0000000000000E+00
(PID.TID 0000.0001) %MON extforcing_qsw_del2          =   0.0000000000000E+00
(PID.TID 0000.0001) %MON extforcing_empmr_max         =   0.0000000000000E+00
(PID.TID 0000.0001) %MON extforcing_empmr_min         =   0.0000000000000E+00
(PID.TID 0000.0001) %MON extforcing_empmr_mean        =   0.0000000000000E+00
(PID.TID 0000.0001) %MON extforcing_empmr_sd          =   0.0000000000000E+00
(PID.TID 0000.0001) %MON extforcing_empmr_del2        =   0.0000000000000E+00
(PID.TID 0000.0001) %MON extforcing_fu_max            =   2.7545738518238E-01
(PID.TID 0000.0001) %MON extforcing_fu_min            =  -1.7006715089083E-01
(PID.TID 0000.0001) %MON extforcing_fu_mean           =   1.6009427973603E-02
(PID.TID 0000.0001) %MON extforcing_fu_sd             =   9.0926657900263E-02
(PID.TID 0000.0001) %MON extforcing_fu_del2           =   7.6387504454075E-03
(PID.TID 0000.0001) %MON extforcing_fv_max            =   2.3124141544104E-01
(PID.TID 0000.0001) %MON extforcing_fv_min            =  -1.7872155755758E-01
(PID.TID 0000.0001) %MON extforcing_fv_mean           =  -5.3326602663659E-03
(PID.TID 0000.0001) %MON extforcing_fv_sd             =   4.7945514242523E-02
(PID.TID 0000.0001) %MON extforcing_fv_del2           =   4.7896564843780E-03
(PID.TID 0000.0001) %MON advcfl_uvel_max              =   2.3158052519822E-02
(PID.TID 0000.0001) %MON advcfl_vvel_max              =   1.5157518716838E-02
(PID.TID 0000.0001) %MON advcfl_wvel_max              =   1.3911760751771E-01
(PID.TID 0000.0001) %MON advcfl_W_hf_max              =   1.0741584596971E-01
(PID.TID 0000.0001) %MON pe_b_mean                    =   1.6860710376428E-04
(PID.TID 0000.0001) %MON ke_max                       =   1.7974435618448E-02
(PID.TID 0000.0001) %MON ke_mean                      =   2.4367749818977E-04
(PID.TID 0000.0001) %MON ke_vol                       =   1.3226782436723E+18
(PID.TID 0000.0001) %MON vort_r_min                   =  -5.5765987081181E-07
(PID.TID 0000.0001) %MON vort_r_max                   =   3.9208664493112E-07
(PID.TID 0000.0001) %MON vort_a_mean                  =  -2.5205769500577E-05
(PID.TID 0000.0001) %MON vort_a_sd                    =   7.3402419867157E-05
(PID.TID 0000.0001) %MON vort_p_mean                  =  -3.1758669692460E-05
(PID.TID 0000.0001) %MON vort_p_sd                    =   1.3126330023110E-04
(PID.TID 0000.0001) %MON surfExpan_theta_mean         =  -1.2651969881541E-05
(PID.TID 0000.0001) %MON surfExpan_salt_mean          =  -2.6446144866229E-06
(PID.TID 0000.0001) // =======================================================
(PID.TID 0000.0001) // End MONITOR dynamic field statistics
(PID.TID 0000.0001) // =======================================================
time,SST,SSS,fu,fv,Q,E-P,i0,i1,a,b =   1.2528E+06  9.2825E-01  3.4703E+01 -3.5795E-02 -5.7473E-02  2.6575E+02  0.0000E+00    12     1  9.8333E-01  1.6667E-02
time,fu0,fu1,fu =   1.2528E+06 -4.5368E-02 -3.5633E-02 -3.5795E-02  9.833333333333333E-01  1.666666666666672E-02
 cg2d: Sum(rhs),rhsMax =  -1.56669122119979E-12  1.02967139421230E+01
(PID.TID 0000.0001)                    cg2d_init_res =    6.93694700920425E-01
(PID.TID 0000.0001)                       cg2d_iters =    24
(PID.TID 0000.0001)                         cg2d_res =    5.66188131892446E-14
(PID.TID 0000.0001) // =======================================================
(PID.TID 0000.0001) // Begin MONITOR dynamic field statistics
(PID.TID 0000.0001) // =======================================================
(PID.TID 0000.0001) %MON time_tsnumber                =                    30
(PID.TID 0000.0001) %MON time_secondsf                =   1.2960000000000E+06
(PID.TID 0000.0001) %MON dynstat_eta_max              =   1.2114479894674E+00
(PID.TID 0000.0001) %MON dynstat_eta_min              =  -9.8822605199010E-01
(PID.TID 0000.0001) %MON dynstat_eta_mean             =   7.5980020724587E-16
(PID.TID 0000.0001) %MON dynstat_eta_sd               =   3.6152842290728E-01
(PID.TID 0000.0001) %MON dynstat_eta_del2             =   2.1618007026134E-02
(PID.TID 0000.0001) %MON dynstat_uvel_max             =   1.7276400947006E-01
(PID.TID 0000.0001) %MON dynstat_uvel_min             =  -1.6657872207543E-01
(PID.TID 0000.0001) %MON dynstat_uvel_mean            =  -3.6033258363935E-03
(PID.TID 0000.0001) %MON dynstat_uvel_sd              =   1.7133204997036E-02
(PID.TID 0000.0001) %MON dynstat_uvel_del2            =   3.7026060637337E-03
(PID.TID 0000.0001) %MON dynstat_vvel_max             =   1.4801373025011E-01
(PID.TID 0000.0001) %MON dynstat_vvel_min             =  -1.5022583055965E-01
(PID.TID 0000.0001) %MON dynstat_vvel_mean            =   3.2368228107974E-03
(PID.TID 0000.0001) %MON dynstat_vvel_sd              =   1.4501336102818E-02
(PID.TID 0000.0001) %MON dynstat_vvel_del2            =   3.6126209237051E-03
(PID.TID 0000.0001) %MON dynstat_wvel_max             =   2.2645249938625E-04
(PID.TID 0000.0001) %MON dynstat_wvel_min             =  -2.0535135412647E-04
(PID.TID 0000.0001) %MON dynstat_wvel_mean            =   3.2344501803849E-22
(PID.TID 0000.0001) %MON dynstat_wvel_sd              =   2.6389649639100E-05
(PID.TID 0000.0001) %MON dynstat_wvel_del2            =   9.3720758928298E-06
(PID.TID 0000.0001) %MON dynstat_theta_max            =   2.9340363294095E+01
(PID.TID 0000.0001) %MON dynstat_theta_min            =  -2.0048640692165E+00
(PID.TID 0000.0001) %MON dynstat_theta_mean           =   3.5953158061428E+00
(PID.TID 0000.0001) %MON dynstat_theta_sd             =   4.3503440816532E+00
(PID.TID 0000.0001) %MON dynstat_theta_del2           =   1.3975545883830E-01
(PID.TID 0000.0001) %MON dynstat_salt_max             =   3.7412830366049E+01
(PID.TID 0000.0001) %MON dynstat_salt_min             =   2.9791372244223E+01
(PID.TID 0000.0001) %MON dynstat_salt_mean            =   3.4716447622655E+01
(PID.TID 0000.0001) %MON dynstat_salt_sd              =   2.9563593548580E-01
(PID.TID 0000.0001) %MON dynstat_salt_del2            =   2.6164921145181E-02
(PID.TID 0000.0001) %MON dynstat_sst_max              =   2.9340363294095E+01
(PID.TID 0000.0001) %MON dynstat_sst_min              =  -1.9083082424079E+00
(PID.TID 0000.0001) %MON dynstat_sst_mean             =   1.8517668905111E+01
(PID.TID 0000.0001) %MON dynstat_sst_sd               =   8.9387880880032E+00
(PID.TID 0000.0001) %MON dynstat_sst_del2             =   2.7376356256717E-01
(PID.TID 0000.0001) %MON dynstat_sss_max              =   3.7412830366049E+01
(PID.TID 0000.0001) %MON dynstat_sss_min              =   2.9791372244223E+01
(PID.TID 0000.0001) %MON dynstat_sss_mean             =   3.4855539787962E+01
(PID.TID 0000.0001) %MON dynstat_sss_sd               =   9.6517669651307E-01
(PID.TID 0000.0001) %MON dynstat_sss_del2             =   8.1789130077500E-02
(PID.TID 0000.0001) %MON extforcing_qnet_max          =   4.4108952331543E+02
(PID.TID 0000.0001) %MON extforcing_qnet_min          =  -1.8139568939209E+02
(PID.TID 0000.0001) %MON extforcing_qnet_mean         =  -1.6518781978955E+01
(PID.TID 0000.0001) %MON extforcing_qnet_sd           =   1.0996264368673E+02
(PID.TID 0000.0001) %MON extforcing_qnet_del2         =   9.6557642237088E+00
(PID.TID 0000.0001) %MON extforcing_qsw_max           =   0.0000000000000E+00
(PID.TID 0000.0001) %MON extforcing_qsw_min           =   0.0000000000000E+00
(PID.TID 0000.0001) %MON extforcing_qsw_mean          =   0.0000000000000E+00
(PID.TID 0000.0001) %MON extforcing_qsw_sd            =   0.0000000000000E+00
(PID.TID 0000.0001) %MON extforcing_qsw_del2          =   0.0000000000000E+00
(PID.TID 0000.0001) %MON extforcing_empmr_max         =   0.0000000000000E+00
(PID.TID 0000.0001) %MON extforcing_empmr_min         =   0.0000000000000E+00
(PID.TID 0000.0001) %MON extforcing_empmr_mean        =   0.0000000000000E+00
(PID.TID 0000.0001) %MON extforcing_empmr_sd          =   0.0000000000000E+00
(PID.TID 0000.0001) %MON extforcing_empmr_del2        =   0.0000000000000E+00
(PID.TID 0000.0001) %MON extforcing_fu_max            =   2.7711813300848E-01
(PID.TID 0000.0001) %MON extforcing_fu_min            =  -1.7047386094928E-01
(PID.TID 0000.0001) %MON extforcing_fu_mean           =   1.6005581563085E-02
(PID.TID 0000.0001) %MON extforcing_fu_sd             =   9.0993184259829E-02
(PID.TID 0000.0001) %MON extforcing_fu_del2           =   7.6649914412450E-03
(PID.TID 0000.0001) %MON extforcing_fv_max            =   2.3218136802316E-01
(PID.TID 0000.0001) %MON extforcing_fv_min            =  -1.7842922881246E-01
(PID.TID 0000.0001) %MON extforcing_fv_mean           =  -5.2957790029356E-03
(PID.TID 0000.0001) %MON extforcing_fv_sd             =   4.8095459318564E-02
(PID.TID 0000.0001) %MON extforcing_fv_del2           =   4.8224257639084E-03
(PID.TID 0000.0001) %MON advcfl_uvel_max              =   2.2880339116120E-02
(PID.TID 0000.0001) %MON advcfl_vvel_max              =   1.4593234772541E-02
(PID.TID 0000.0001) %MON advcfl_wvel_max              =   1.4292454595982E-01
(PID.TID 0000.0001) %MON advcfl_W_hf_max              =   1.0947069960927E-01
(PID.TID 0000.0001) %MON pe_b_mean                    =   1.6724998730764E-04
(PID.TID 0000.0001) %MON ke_max                       =   1.7952840511269E-02
(PID.TID 0000.0001) %MON ke_mean                      =   2.3837295510121E-04
(PID.TID 0000.0001) %MON ke_vol                       =   1.3226782436723E+18
(PID.TID 0000.0001) %MON vort_r_min                   =  -5.4102009848235E-07
(PID.TID 0000.0001) %MON vort_r_max                   =   3.9721014249269E-07
(PID.TID 0000.0001) %MON vort_a_mean                  =  -2.5205769518023E-05
(PID.TID 0000.0001) %MON vort_a_sd                    =   7.3402525379439E-05
(PID.TID 0000.0001) %MON vort_p_mean                  =  -3.1758669714442E-05
(PID.TID 0000.0001) %MON vort_p_sd                    =   1.3126354359547E-04
(PID.TID 0000.0001) %MON surfExpan_theta_mean         =  -1.0693580356360E-05
(PID.TID 0000.0001) %MON surfExpan_salt_mean          =  -2.1205987870456E-06
(PID.TID 0000.0001) // =======================================================
(PID.TID 0000.0001) // End MONITOR dynamic field statistics
(PID.TID 0000.0001) // =======================================================
S/R EXTERNAL_FIELDS_LOAD: Reading new data:    1    2        30  1.296000000000E+06
(PID.TID 0000.0001)  MDSREADFIELD: opening global file: trenberth_taux.bin
(PID.TID 0000.0001)  MDSREADFIELD: opening global file: trenberth_taux.bin
(PID.TID 0000.0001)  MDSREADFIELD: opening global file: trenberth_tauy.bin
(PID.TID 0000.0001)  MDSREADFIELD: opening global file: trenberth_tauy.bin
(PID.TID 0000.0001)  MDSREADFIELD: opening global file: ncep_qnet.bin
(PID.TID 0000.0001)  MDSREADFIELD: opening global file: ncep_qnet.bin
(PID.TID 0000.0001)  MDSREADFIELD: opening global file: lev_sst.bin
(PID.TID 0000.0001)  MDSREADFIELD: opening global file: lev_sst.bin
(PID.TID 0000.0001)  MDSREADFIELD: opening global file: lev_sss.bin
(PID.TID 0000.0001)  MDSREADFIELD: opening global file: lev_sss.bin
time,SST,SSS,fu,fv,Q,E-P,i0,i1,a,b =   1.2960E+06  9.5843E-01  3.4715E+01 -3.5633E-02 -5.7257E-02  2.6577E+02  0.0000E+00     1     2  0.0000E+00  1.0000E+00
time,fu0,fu1,fu =   1.2960E+06 -3.5633E-02 -1.4435E-02 -3.5633E-02  0.000000000000000E+00  1.000000000000000E+00
 cg2d: Sum(rhs),rhsMax =  -1.21545482012486E-12  9.29740447793334E+00
(PID.TID 0000.0001)                    cg2d_init_res =    7.78656035366549E-01
(PID.TID 0000.0001)                       cg2d_iters =    25
(PID.TID 0000.0001)                         cg2d_res =    2.76135208343719E-14
(PID.TID 0000.0001) // =======================================================
(PID.TID 0000.0001) // Begin MONITOR dynamic field statistics
(PID.TID 0000.0001) // =======================================================
(PID.TID 0000.0001) %MON time_tsnumber                =                    31
(PID.TID 0000.0001) %MON time_secondsf                =   1.3392000000000E+06
(PID.TID 0000.0001) %MON dynstat_eta_max              =   1.0941602084390E+00
(PID.TID 0000.0001) %MON dynstat_eta_min              =  -1.0030894818212E+00
(PID.TID 0000.0001) %MON dynstat_eta_mean             =   7.3375610024255E-16
(PID.TID 0000.0001) %MON dynstat_eta_sd               =   3.6096376724478E-01
(PID.TID 0000.0001) %MON dynstat_eta_del2             =   2.1939107111237E-02
(PID.TID 0000.0001) %MON dynstat_uvel_max             =   1.6862297201312E-01
(PID.TID 0000.0001) %MON dynstat_uvel_min             =  -1.6539787556119E-01
(PID.TID 0000.0001) %MON dynstat_uvel_mean            =  -3.1645605075088E-03
(PID.TID 0000.0001) %MON dynstat_uvel_sd              =   1.6745887674467E-02
(PID.TID 0000.0001) %MON dynstat_uvel_del2            =   3.6739962097587E-03
(PID.TID 0000.0001) %MON dynstat_vvel_max             =   1.5549140537073E-01
(PID.TID 0000.0001) %MON dynstat_vvel_min             =  -1.5221286779346E-01
(PID.TID 0000.0001) %MON dynstat_vvel_mean            =   3.4853211837860E-03
(PID.TID 0000.0001) %MON dynstat_vvel_sd              =   1.4584192418787E-02
(PID.TID 0000.0001) %MON dynstat_vvel_del2            =   3.6204069012732E-03
(PID.TID 0000.0001) %MON dynstat_wvel_max             =   2.1904772815007E-04
(PID.TID 0000.0001) %MON dynstat_wvel_min             =  -1.9527948136169E-04
(PID.TID 0000.0001) %MON dynstat_wvel_mean            =   1.6155621632834E-22
(PID.TID 0000.0001) %MON dynstat_wvel_sd              =   2.6380585814215E-05
(PID.TID 0000.0001) %MON dynstat_wvel_del2            =   9.3480815687681E-06
(PID.TID 0000.0001) %MON dynstat_theta_max            =   2.9364581369194E+01
(PID.TID 0000.0001) %MON dynstat_theta_min            =  -2.0070114258962E+00
(PID.TID 0000.0001) %MON dynstat_theta_mean           =   3.5954646510197E+00
(PID.TID 0000.0001) %MON dynstat_theta_sd             =   4.3511773745824E+00
(PID.TID 0000.0001) %MON dynstat_theta_del2           =   1.3979931511538E-01
(PID.TID 0000.0001) %MON dynstat_salt_max             =   3.7411734126899E+01
(PID.TID 0000.0001) %MON dynstat_salt_min             =   2.9794354813105E+01
(PID.TID 0000.0001) %MON dynstat_salt_mean            =   3.4716467781460E+01
(PID.TID 0000.0001) %MON dynstat_salt_sd              =   2.9560505100023E-01
(PID.TID 0000.0001) %MON dynstat_salt_del2            =   2.6165834274419E-02
(PID.TID 0000.0001) %MON dynstat_sst_max              =   2.9364581369194E+01
(PID.TID 0000.0001) %MON dynstat_sst_min              =  -1.9084799450943E+00
(PID.TID 0000.0001) %MON dynstat_sst_mean             =   1.8520217502931E+01
(PID.TID 0000.0001) %MON dynstat_sst_sd               =   8.9438263334680E+00
(PID.TID 0000.0001) %MON dynstat_sst_del2             =   2.7409851220095E-01
(PID.TID 0000.0001) %MON dynstat_sss_max              =   3.7411734126899E+01
(PID.TID 0000.0001) %MON dynstat_sss_min              =   2.9794354813105E+01
(PID.TID 0000.0001) %MON dynstat_sss_mean             =   3.4855088621171E+01
(PID.TID 0000.0001) %MON dynstat_sss_sd               =   9.6495723331787E-01
(PID.TID 0000.0001) %MON dynstat_sss_del2             =   8.1758844653528E-02
(PID.TID 0000.0001) %MON extforcing_qnet_max          =   4.4161361694336E+02
(PID.TID 0000.0001) %MON extforcing_qnet_min          =  -1.8132531738281E+02
(PID.TID 0000.0001) %MON extforcing_qnet_mean         =  -1.6512526001044E+01
(PID.TID 0000.0001) %MON extforcing_qnet_sd           =   1.0987288293460E+02
(PID.TID 0000.0001) %MON extforcing_qnet_del2         =   9.6689454498868E+00
(PID.TID 0000.0001) %MON extforcing_qsw_max           =   0.0000000000000E+00
(PID.TID 0000.0001) %MON extforcing_qsw_min           =   0.0000000000000E+00
(PID.TID 0000.0001) %MON extforcing_qsw_mean          =   0.0000000000000E+00
(PID.TID 0000.0001) %MON extforcing_qsw_sd            =   0.0000000000000E+00
(PID.TID 0000.0001) %MON extforcing_qsw_del2          =   0.0000000000000E+00
(PID.TID 0000.0001) %MON extforcing_empmr_max         =   0.0000000000000E+00
(PID.TID 0000.0001) %MON extforcing_empmr_min         =   0.0000000000000E+00
(PID.TID 0000.0001) %MON extforcing_empmr_mean        =   0.0000000000000E+00
(PID.TID 0000.0001) %MON extforcing_empmr_sd          =   0.0000000000000E+00
(PID.TID 0000.0001) %MON extforcing_empmr_del2        =   0.0000000000000E+00
(PID.TID 0000.0001) %MON extforcing_fu_max            =   2.7877888083458E-01
(PID.TID 0000.0001) %MON extforcing_fu_min            =  -1.7088057100773E-01
(PID.TID 0000.0001) %MON extforcing_fu_mean           =   1.6001735152566E-02
(PID.TID 0000.0001) %MON extforcing_fu_sd             =   9.1062350670783E-02
(PID.TID 0000.0001) %MON extforcing_fu_del2           =   7.6925174727079E-03
(PID.TID 0000.0001) %MON extforcing_fv_max            =   2.3312132060528E-01
(PID.TID 0000.0001) %MON extforcing_fv_min            =  -1.7813690006733E-01
(PID.TID 0000.0001) %MON extforcing_fv_mean           =  -5.2588977395051E-03
(PID.TID 0000.0001) %MON extforcing_fv_sd             =   4.8248606070107E-02
(PID.TID 0000.0001) %MON extforcing_fv_del2           =   4.8562771937866E-03
(PID.TID 0000.0001) %MON advcfl_uvel_max              =   2.3730638063470E-02
(PID.TID 0000.0001) %MON advcfl_vvel_max              =   1.5104743140604E-02
(PID.TID 0000.0001) %MON advcfl_wvel_max              =   1.6889440468090E-01
(PID.TID 0000.0001) %MON advcfl_W_hf_max              =   1.1906870885253E-01
(PID.TID 0000.0001) %MON pe_b_mean                    =   1.6672795420276E-04
(PID.TID 0000.0001) %MON ke_max                       =   1.7779027300306E-02
(PID.TID 0000.0001) %MON ke_mean                      =   2.3289420848627E-04
(PID.TID 0000.0001) %MON ke_vol                       =   1.3226782436723E+18
(PID.TID 0000.0001) %MON vort_r_min                   =  -5.1460916736283E-07
(PID.TID 0000.0001) %MON vort_r_max                   =   4.0080295746713E-07
(PID.TID 0000.0001) %MON vort_a_mean                  =  -2.5205769527352E-05
(PID.TID 0000.0001) %MON vort_a_sd                    =   7.3402622162532E-05
(PID.TID 0000.0001) %MON vort_p_mean                  =  -3.1758669726197E-05
(PID.TID 0000.0001) %MON vort_p_sd                    =   1.3126375591406E-04
(PID.TID 0000.0001) %MON surfExpan_theta_mean         =  -7.8914227212293E-06
(PID.TID 0000.0001) %MON surfExpan_salt_mean          =  -1.5005858610614E-06
(PID.TID 0000.0001) // =======================================================
(PID.TID 0000.0001) // End MONITOR dynamic field statistics
(PID.TID 0000.0001) // =======================================================
time,SST,SSS,fu,fv,Q,E-P,i0,i1,a,b =   1.3392E+06  9.3359E-01  3.4710E+01 -3.5280E-02 -5.6596E-02  2.6535E+02  0.0000E+00     1     2  1.6667E-02  9.8333E-01
time,fu0,fu1,fu =   1.3392E+06 -3.5633E-02 -1.4435E-02 -3.5280E-02  1.666666666666667E-02  9.833333333333333E-01
 cg2d: Sum(rhs),rhsMax =  -9.86231929456238E-13  9.11143478781242E+00
(PID.TID 0000.0001)                    cg2d_init_res =    7.98470177580904E-01
(PID.TID 0000.0001)                       cg2d_iters =    25
(PID.TID 0000.0001)                         cg2d_res =    3.46166123513583E-14
(PID.TID 0000.0001) // =======================================================
(PID.TID 0000.0001) // Begin MONITOR dynamic field statistics
(PID.TID 0000.0001) // =======================================================
(PID.TID 0000.0001) %MON time_tsnumber                =                    32
(PID.TID 0000.0001) %MON time_secondsf                =   1.3824000000000E+06
(PID.TID 0000.0001) %MON dynstat_eta_max              =   1.0198590249432E+00
(PID.TID 0000.0001) %MON dynstat_eta_min              =  -1.0161510489449E+00
(PID.TID 0000.0001) %MON dynstat_eta_mean             =   6.7254077457217E-16
(PID.TID 0000.0001) %MON dynstat_eta_sd               =   3.6142738790107E-01
(PID.TID 0000.0001) %MON dynstat_eta_del2             =   2.2209719946480E-02
(PID.TID 0000.0001) %MON dynstat_uvel_max             =   1.6289838069804E-01
(PID.TID 0000.0001) %MON dynstat_uvel_min             =  -1.6364275202000E-01
(PID.TID 0000.0001) %MON dynstat_uvel_mean            =  -2.7845675676913E-03
(PID.TID 0000.0001) %MON dynstat_uvel_sd              =   1.6341451291763E-02
(PID.TID 0000.0001) %MON dynstat_uvel_del2            =   3.6411526795064E-03
(PID.TID 0000.0001) %MON dynstat_vvel_max             =   1.6233151350460E-01
(PID.TID 0000.0001) %MON dynstat_vvel_min             =  -1.5805224885644E-01
(PID.TID 0000.0001) %MON dynstat_vvel_mean            =   3.7199722791722E-03
(PID.TID 0000.0001) %MON dynstat_vvel_sd              =   1.4633026985954E-02
(PID.TID 0000.0001) %MON dynstat_vvel_del2            =   3.6177277750051E-03
(PID.TID 0000.0001) %MON dynstat_wvel_max             =   2.1074520553500E-04
(PID.TID 0000.0001) %MON dynstat_wvel_min             =  -1.8663611442510E-04
(PID.TID 0000.0001) %MON dynstat_wvel_mean            =   5.1619544948809E-23
(PID.TID 0000.0001) %MON dynstat_wvel_sd              =   2.6244759134526E-05
(PID.TID 0000.0001) %MON dynstat_wvel_del2            =   9.2650729364835E-06
(PID.TID 0000.0001) %MON dynstat_theta_max            =   2.9388307091831E+01
(PID.TID 0000.0001) %MON dynstat_theta_min            =  -2.0088476980768E+00
(PID.TID 0000.0001) %MON dynstat_theta_mean           =   3.5955760041883E+00
(PID.TID 0000.0001) %MON dynstat_theta_sd             =   4.3520336374566E+00
(PID.TID 0000.0001) %MON dynstat_theta_del2           =   1.3982559414252E-01
(PID.TID 0000.0001) %MON dynstat_salt_max             =   3.7410598364382E+01
(PID.TID 0000.0001) %MON dynstat_salt_min             =   2.9797541125776E+01
(PID.TID 0000.0001) %MON dynstat_salt_mean            =   3.4716480323200E+01
(PID.TID 0000.0001) %MON dynstat_salt_sd              =   2.9557123478042E-01
(PID.TID 0000.0001) %MON dynstat_salt_del2            =   2.6168841772285E-02
(PID.TID 0000.0001) %MON dynstat_sst_max              =   2.9388307091831E+01
(PID.TID 0000.0001) %MON dynstat_sst_min              =  -1.9080705987225E+00
(PID.TID 0000.0001) %MON dynstat_sst_mean             =   1.8522805702555E+01
(PID.TID 0000.0001) %MON dynstat_sst_sd               =   8.9487961471222E+00
(PID.TID 0000.0001) %MON dynstat_sst_del2             =   2.7409439119431E-01
(PID.TID 0000.0001) %MON dynstat_sss_max              =   3.7410598364382E+01
(PID.TID 0000.0001) %MON dynstat_sss_min              =   2.9797541125776E+01
(PID.TID 0000.0001) %MON dynstat_sss_mean             =   3.4854524375620E+01
(PID.TID 0000.0001) %MON dynstat_sss_sd               =   9.6484365456511E-01
(PID.TID 0000.0001) %MON dynstat_sss_del2             =   8.1772559834490E-02
(PID.TID 0000.0001) %MON extforcing_qnet_max          =   4.3995407358805E+02
(PID.TID 0000.0001) %MON extforcing_qnet_min          =  -1.8079741999308E+02
(PID.TID 0000.0001) %MON extforcing_qnet_mean         =  -1.6470071417342E+01
(PID.TID 0000.0001) %MON extforcing_qnet_sd           =   1.0933313020962E+02
(PID.TID 0000.0001) %MON extforcing_qnet_del2         =   9.6427542397483E+00
(PID.TID 0000.0001) %MON extforcing_qsw_max           =   0.0000000000000E+00
(PID.TID 0000.0001) %MON extforcing_qsw_min           =   0.0000000000000E+00
(PID.TID 0000.0001) %MON extforcing_qsw_mean          =   0.0000000000000E+00
(PID.TID 0000.0001) %MON extforcing_qsw_sd            =   0.0000000000000E+00
(PID.TID 0000.0001) %MON extforcing_qsw_del2          =   0.0000000000000E+00
(PID.TID 0000.0001) %MON extforcing_empmr_max         =   0.0000000000000E+00
(PID.TID 0000.0001) %MON extforcing_empmr_min         =   0.0000000000000E+00
(PID.TID 0000.0001) %MON extforcing_empmr_mean        =   0.0000000000000E+00
(PID.TID 0000.0001) %MON extforcing_empmr_sd          =   0.0000000000000E+00
(PID.TID 0000.0001) %MON extforcing_empmr_del2        =   0.0000000000000E+00
(PID.TID 0000.0001) %MON extforcing_fu_max            =   2.7868084311485E-01
(PID.TID 0000.0001) %MON extforcing_fu_min            =  -1.7003387138247E-01
(PID.TID 0000.0001) %MON extforcing_fu_mean           =   1.6028885260300E-02
(PID.TID 0000.0001) %MON extforcing_fu_sd             =   9.0967078603419E-02
(PID.TID 0000.0001) %MON extforcing_fu_del2           =   7.6642672975857E-03
(PID.TID 0000.0001) %MON extforcing_fv_max            =   2.3151709710558E-01
(PID.TID 0000.0001) %MON extforcing_fv_min            =  -1.7764125019312E-01
(PID.TID 0000.0001) %MON extforcing_fv_mean           =  -5.2915281928627E-03
(PID.TID 0000.0001) %MON extforcing_fv_sd             =   4.8087148052495E-02
(PID.TID 0000.0001) %MON extforcing_fv_del2           =   4.8238392069686E-03
(PID.TID 0000.0001) %MON advcfl_uvel_max              =   2.4174193926375E-02
(PID.TID 0000.0001) %MON advcfl_vvel_max              =   1.5769204794737E-02
(PID.TID 0000.0001) %MON advcfl_wvel_max              =   1.9060401386104E-01
(PID.TID 0000.0001) %MON advcfl_W_hf_max              =   1.3451052549735E-01
(PID.TID 0000.0001) %MON pe_b_mean                    =   1.6715651890399E-04
(PID.TID 0000.0001) %MON ke_max                       =   1.7436180660012E-02
(PID.TID 0000.0001) %MON ke_mean                      =   2.2718725253923E-04
(PID.TID 0000.0001) %MON ke_vol                       =   1.3226782436723E+18
(PID.TID 0000.0001) %MON vort_r_min                   =  -4.8009401071894E-07
(PID.TID 0000.0001) %MON vort_r_max                   =   4.0286838764389E-07
(PID.TID 0000.0001) %MON vort_a_mean                  =  -2.5205769526960E-05
(PID.TID 0000.0001) %MON vort_a_sd                    =   7.3402709145084E-05
(PID.TID 0000.0001) %MON vort_p_mean                  =  -3.1758669725703E-05
(PID.TID 0000.0001) %MON vort_p_sd                    =   1.3126393701499E-04
(PID.TID 0000.0001) %MON surfExpan_theta_mean         =  -4.4492359015647E-06
(PID.TID 0000.0001) %MON surfExpan_salt_mean          =  -8.1496967985350E-07
(PID.TID 0000.0001) // =======================================================
(PID.TID 0000.0001) // End MONITOR dynamic field statistics
(PID.TID 0000.0001) // =======================================================
time,SST,SSS,fu,fv,Q,E-P,i0,i1,a,b =   1.3824E+06  9.0875E-01  3.4705E+01 -3.4926E-02 -5.5936E-02  2.6493E+02  0.0000E+00     1     2  3.3333E-02  9.6667E-01
time,fu0,fu1,fu =   1.3824E+06 -3.5633E-02 -1.4435E-02 -3.4926E-02  3.333333333333333E-02  9.666666666666667E-01
 cg2d: Sum(rhs),rhsMax =  -1.67589553345948E-12  9.23484280230285E+00
(PID.TID 0000.0001)                    cg2d_init_res =    7.82865949540365E-01
(PID.TID 0000.0001)                       cg2d_iters =    25
(PID.TID 0000.0001)                         cg2d_res =    3.86457083351187E-14
(PID.TID 0000.0001) // =======================================================
(PID.TID 0000.0001) // Begin MONITOR dynamic field statistics
(PID.TID 0000.0001) // =======================================================
(PID.TID 0000.0001) %MON time_tsnumber                =                    33
(PID.TID 0000.0001) %MON time_secondsf                =   1.4256000000000E+06
(PID.TID 0000.0001) %MON dynstat_eta_max              =   1.0329776531076E+00
(PID.TID 0000.0001) %MON dynstat_eta_min              =  -1.0263285024162E+00
(PID.TID 0000.0001) %MON dynstat_eta_mean             =   6.7236743020336E-16
(PID.TID 0000.0001) %MON dynstat_eta_sd               =   3.6297000259342E-01
(PID.TID 0000.0001) %MON dynstat_eta_del2             =   2.2472814183378E-02
(PID.TID 0000.0001) %MON dynstat_uvel_max             =   1.6370954486500E-01
(PID.TID 0000.0001) %MON dynstat_uvel_min             =  -1.6136317272276E-01
(PID.TID 0000.0001) %MON dynstat_uvel_mean            =  -2.4650222360809E-03
(PID.TID 0000.0001) %MON dynstat_uvel_sd              =   1.5930928271746E-02
(PID.TID 0000.0001) %MON dynstat_uvel_del2            =   3.6023914230676E-03
(PID.TID 0000.0001) %MON dynstat_vvel_max             =   1.6744171646029E-01
(PID.TID 0000.0001) %MON dynstat_vvel_min             =  -1.6044348043471E-01
(PID.TID 0000.0001) %MON dynstat_vvel_mean            =   3.9317418925089E-03
(PID.TID 0000.0001) %MON dynstat_vvel_sd              =   1.4640985661067E-02
(PID.TID 0000.0001) %MON dynstat_vvel_del2            =   3.6023459065026E-03
(PID.TID 0000.0001) %MON dynstat_wvel_max             =   2.0596534797171E-04
(PID.TID 0000.0001) %MON dynstat_wvel_min             =  -1.8233076590717E-04
(PID.TID 0000.0001) %MON dynstat_wvel_mean            =  -1.0654659417739E-21
(PID.TID 0000.0001) %MON dynstat_wvel_sd              =   2.5965890899423E-05
(PID.TID 0000.0001) %MON dynstat_wvel_del2            =   9.1279086276726E-06
(PID.TID 0000.0001) %MON dynstat_theta_max            =   2.9410935877072E+01
(PID.TID 0000.0001) %MON dynstat_theta_min            =  -2.0103285517204E+00
(PID.TID 0000.0001) %MON dynstat_theta_mean           =   3.5956441287393E+00
(PID.TID 0000.0001) %MON dynstat_theta_sd             =   4.3528709303527E+00
(PID.TID 0000.0001) %MON dynstat_theta_del2           =   1.3983837666063E-01
(PID.TID 0000.0001) %MON dynstat_salt_max             =   3.7409452226891E+01
(PID.TID 0000.0001) %MON dynstat_salt_min             =   2.9800872634884E+01
(PID.TID 0000.0001) %MON dynstat_salt_mean            =   3.4716484717227E+01
(PID.TID 0000.0001) %MON dynstat_salt_sd              =   2.9553436767797E-01
(PID.TID 0000.0001) %MON dynstat_salt_del2            =   2.6169840171291E-02
(PID.TID 0000.0001) %MON dynstat_sst_max              =   2.9410935877072E+01
(PID.TID 0000.0001) %MON dynstat_sst_min              =  -1.9215938440965E+00
(PID.TID 0000.0001) %MON dynstat_sst_mean             =   1.8525044477954E+01
(PID.TID 0000.0001) %MON dynstat_sst_sd               =   8.9539940211920E+00
(PID.TID 0000.0001) %MON dynstat_sst_del2             =   2.7408357888558E-01
(PID.TID 0000.0001) %MON dynstat_sss_max              =   3.7409452226891E+01
(PID.TID 0000.0001) %MON dynstat_sss_min              =   2.9800872634884E+01
(PID.TID 0000.0001) %MON dynstat_sss_mean             =   3.4853793567499E+01
(PID.TID 0000.0001) %MON dynstat_sss_sd               =   9.6481616567995E-01
(PID.TID 0000.0001) %MON dynstat_sss_del2             =   8.1775948143907E-02
(PID.TID 0000.0001) %MON extforcing_qnet_max          =   4.3829453023275E+02
(PID.TID 0000.0001) %MON extforcing_qnet_min          =  -1.8026952260335E+02
(PID.TID 0000.0001) %MON extforcing_qnet_mean         =  -1.6427616833641E+01
(PID.TID 0000.0001) %MON extforcing_qnet_sd           =   1.0879423939526E+02
(PID.TID 0000.0001) %MON extforcing_qnet_del2         =   9.6167859194667E+00
(PID.TID 0000.0001) %MON extforcing_qsw_max           =   0.0000000000000E+00
(PID.TID 0000.0001) %MON extforcing_qsw_min           =   0.0000000000000E+00
(PID.TID 0000.0001) %MON extforcing_qsw_mean          =   0.0000000000000E+00
(PID.TID 0000.0001) %MON extforcing_qsw_sd            =   0.0000000000000E+00
(PID.TID 0000.0001) %MON extforcing_qsw_del2          =   0.0000000000000E+00
(PID.TID 0000.0001) %MON extforcing_empmr_max         =   0.0000000000000E+00
(PID.TID 0000.0001) %MON extforcing_empmr_min         =   0.0000000000000E+00
(PID.TID 0000.0001) %MON extforcing_empmr_mean        =   0.0000000000000E+00
(PID.TID 0000.0001) %MON extforcing_empmr_sd          =   0.0000000000000E+00
(PID.TID 0000.0001) %MON extforcing_empmr_del2        =   0.0000000000000E+00
(PID.TID 0000.0001) %MON extforcing_fu_max            =   2.7858280539513E-01
(PID.TID 0000.0001) %MON extforcing_fu_min            =  -1.6918717175722E-01
(PID.TID 0000.0001) %MON extforcing_fu_mean           =   1.6056035368035E-02
(PID.TID 0000.0001) %MON extforcing_fu_sd             =   9.0876058187851E-02
(PID.TID 0000.0001) %MON extforcing_fu_del2           =   7.6368916193188E-03
(PID.TID 0000.0001) %MON extforcing_fv_max            =   2.2991287360589E-01
(PID.TID 0000.0001) %MON extforcing_fv_min            =  -1.7714560031891E-01
(PID.TID 0000.0001) %MON extforcing_fv_mean           =  -5.3241586462203E-03
(PID.TID 0000.0001) %MON extforcing_fv_sd             =   4.7928888739260E-02
(PID.TID 0000.0001) %MON extforcing_fv_del2           =   4.7920175668637E-03
(PID.TID 0000.0001) %MON advcfl_uvel_max              =   2.4213363535214E-02
(PID.TID 0000.0001) %MON advcfl_vvel_max              =   1.6265620032981E-02
(PID.TID 0000.0001) %MON advcfl_wvel_max              =   2.0602985740849E-01
(PID.TID 0000.0001) %MON advcfl_W_hf_max              =   1.4550642970780E-01
(PID.TID 0000.0001) %MON pe_b_mean                    =   1.6858645141613E-04
(PID.TID 0000.0001) %MON ke_max                       =   1.6927277128848E-02
(PID.TID 0000.0001) %MON ke_mean                      =   2.2123819308964E-04
(PID.TID 0000.0001) %MON ke_vol                       =   1.3226782436723E+18
(PID.TID 0000.0001) %MON vort_r_min                   =  -4.3931731522849E-07
(PID.TID 0000.0001) %MON vort_r_max                   =   4.0893719375216E-07
(PID.TID 0000.0001) %MON vort_a_mean                  =  -2.5205769516397E-05
(PID.TID 0000.0001) %MON vort_a_sd                    =   7.3402785593532E-05
(PID.TID 0000.0001) %MON vort_p_mean                  =  -3.1758669712393E-05
(PID.TID 0000.0001) %MON vort_p_sd                    =   1.3126408722197E-04
(PID.TID 0000.0001) %MON surfExpan_theta_mean         =  -5.6364670699085E-07
(PID.TID 0000.0001) %MON surfExpan_salt_mean          =  -9.5582143128984E-08
(PID.TID 0000.0001) // =======================================================
(PID.TID 0000.0001) // End MONITOR dynamic field statistics
(PID.TID 0000.0001) // =======================================================
time,SST,SSS,fu,fv,Q,E-P,i0,i1,a,b =   1.4256E+06  8.8391E-01  3.4700E+01 -3.4573E-02 -5.5276E-02  2.6451E+02  0.0000E+00     1     2  5.0000E-02  9.5000E-01
time,fu0,fu1,fu =   1.4256E+06 -3.5633E-02 -1.4435E-02 -3.4573E-02  5.000000000000000E-02  9.500000000000000E-01
 cg2d: Sum(rhs),rhsMax =  -1.40027572870238E-12  9.27184049069620E+00
(PID.TID 0000.0001)                    cg2d_init_res =    7.65655878243276E-01
(PID.TID 0000.0001)                       cg2d_iters =    25
(PID.TID 0000.0001)                         cg2d_res =    4.21832316519922E-14
(PID.TID 0000.0001) // =======================================================
(PID.TID 0000.0001) // Begin MONITOR dynamic field statistics
(PID.TID 0000.0001) // =======================================================
(PID.TID 0000.0001) %MON time_tsnumber                =                    34
(PID.TID 0000.0001) %MON time_secondsf                =   1.4688000000000E+06
(PID.TID 0000.0001) %MON dynstat_eta_max              =   1.0365009687838E+00
(PID.TID 0000.0001) %MON dynstat_eta_min              =  -1.0336993466406E+00
(PID.TID 0000.0001) %MON dynstat_eta_mean             =   6.3571747794116E-16
(PID.TID 0000.0001) %MON dynstat_eta_sd               =   3.6555560367232E-01
(PID.TID 0000.0001) %MON dynstat_eta_del2             =   2.2692525288606E-02
(PID.TID 0000.0001) %MON dynstat_uvel_max             =   1.7191940669651E-01
(PID.TID 0000.0001) %MON dynstat_uvel_min             =  -1.5885403737520E-01
(PID.TID 0000.0001) %MON dynstat_uvel_mean            =  -2.2056976627313E-03
(PID.TID 0000.0001) %MON dynstat_uvel_sd              =   1.5526337153073E-02
(PID.TID 0000.0001) %MON dynstat_uvel_del2            =   3.5631964774711E-03
(PID.TID 0000.0001) %MON dynstat_vvel_max             =   1.7070296938833E-01
(PID.TID 0000.0001) %MON dynstat_vvel_min             =  -1.5929523304217E-01
(PID.TID 0000.0001) %MON dynstat_vvel_mean            =   4.1128009372523E-03
(PID.TID 0000.0001) %MON dynstat_vvel_sd              =   1.4604768217457E-02
(PID.TID 0000.0001) %MON dynstat_vvel_del2            =   3.5789256360331E-03
(PID.TID 0000.0001) %MON dynstat_wvel_max             =   2.0108146259537E-04
(PID.TID 0000.0001) %MON dynstat_wvel_min             =  -1.7982887924180E-04
(PID.TID 0000.0001) %MON dynstat_wvel_mean            =  -6.3659135770239E-22
(PID.TID 0000.0001) %MON dynstat_wvel_sd              =   2.5544463968967E-05
(PID.TID 0000.0001) %MON dynstat_wvel_del2            =   8.9475945659113E-06
(PID.TID 0000.0001) %MON dynstat_theta_max            =   2.9431978884402E+01
(PID.TID 0000.0001) %MON dynstat_theta_min            =  -2.0114384109789E+00
(PID.TID 0000.0001) %MON dynstat_theta_mean           =   3.5956655273897E+00
(PID.TID 0000.0001) %MON dynstat_theta_sd             =   4.3536505131899E+00
(PID.TID 0000.0001) %MON dynstat_theta_del2           =   1.3984130328518E-01
(PID.TID 0000.0001) %MON dynstat_salt_max             =   3.7408322612750E+01
(PID.TID 0000.0001) %MON dynstat_salt_min             =   2.9804289598751E+01
(PID.TID 0000.0001) %MON dynstat_salt_mean            =   3.4716480805383E+01
(PID.TID 0000.0001) %MON dynstat_salt_sd              =   2.9549445901961E-01
(PID.TID 0000.0001) %MON dynstat_salt_del2            =   2.6173121477791E-02
(PID.TID 0000.0001) %MON dynstat_sst_max              =   2.9431978884402E+01
(PID.TID 0000.0001) %MON dynstat_sst_min              =  -1.9442237843300E+00
(PID.TID 0000.0001) %MON dynstat_sst_mean             =   1.8527415628873E+01
(PID.TID 0000.0001) %MON dynstat_sst_sd               =   8.9585127967722E+00
(PID.TID 0000.0001) %MON dynstat_sst_del2             =   2.7382943439499E-01
(PID.TID 0000.0001) %MON dynstat_sss_max              =   3.7408322612750E+01
(PID.TID 0000.0001) %MON dynstat_sss_min              =   2.9804289598751E+01
(PID.TID 0000.0001) %MON dynstat_sss_mean             =   3.4852973640925E+01
(PID.TID 0000.0001) %MON dynstat_sss_sd               =   9.6482848859380E-01
(PID.TID 0000.0001) %MON dynstat_sss_del2             =   8.1786300626021E-02
(PID.TID 0000.0001) %MON extforcing_qnet_max          =   4.3663498687744E+02
(PID.TID 0000.0001) %MON extforcing_qnet_min          =  -1.7974162521362E+02
(PID.TID 0000.0001) %MON extforcing_qnet_mean         =  -1.6385162249939E+01
(PID.TID 0000.0001) %MON extforcing_qnet_sd           =   1.0825622336309E+02
(PID.TID 0000.0001) %MON extforcing_qnet_del2         =   9.5910463469763E+00
(PID.TID 0000.0001) %MON extforcing_qsw_max           =   0.0000000000000E+00
(PID.TID 0000.0001) %MON extforcing_qsw_min           =   0.0000000000000E+00
(PID.TID 0000.0001) %MON extforcing_qsw_mean          =   0.0000000000000E+00
(PID.TID 0000.0001) %MON extforcing_qsw_sd            =   0.0000000000000E+00
(PID.TID 0000.0001) %MON extforcing_qsw_del2          =   0.0000000000000E+00
(PID.TID 0000.0001) %MON extforcing_empmr_max         =   0.0000000000000E+00
(PID.TID 0000.0001) %MON extforcing_empmr_min         =   0.0000000000000E+00
(PID.TID 0000.0001) %MON extforcing_empmr_mean        =   0.0000000000000E+00
(PID.TID 0000.0001) %MON extforcing_empmr_sd          =   0.0000000000000E+00
(PID.TID 0000.0001) %MON extforcing_empmr_del2        =   0.0000000000000E+00
(PID.TID 0000.0001) %MON extforcing_fu_max            =   2.7848476767540E-01
(PID.TID 0000.0001) %MON extforcing_fu_min            =  -1.6842452287674E-01
(PID.TID 0000.0001) %MON extforcing_fu_mean           =   1.6083185475769E-02
(PID.TID 0000.0001) %MON extforcing_fu_sd             =   9.0789302211503E-02
(PID.TID 0000.0001) %MON extforcing_fu_del2           =   7.6110413546120E-03
(PID.TID 0000.0001) %MON extforcing_fv_max            =   2.2830865010619E-01
(PID.TID 0000.0001) %MON extforcing_fv_min            =  -1.7664995044470E-01
(PID.TID 0000.0001) %MON extforcing_fv_mean           =  -5.3567890995779E-03
(PID.TID 0000.0001) %MON extforcing_fv_sd             =   4.7773859919224E-02
(PID.TID 0000.0001) %MON extforcing_fv_del2           =   4.7611585574372E-03
(PID.TID 0000.0001) %MON advcfl_uvel_max              =   2.4093895143522E-02
(PID.TID 0000.0001) %MON advcfl_vvel_max              =   1.6582424602836E-02
(PID.TID 0000.0001) %MON advcfl_wvel_max              =   2.1454721481645E-01
(PID.TID 0000.0001) %MON advcfl_W_hf_max              =   1.5161087721812E-01
(PID.TID 0000.0001) %MON pe_b_mean                    =   1.7099684266248E-04
(PID.TID 0000.0001) %MON ke_max                       =   1.6255734760126E-02
(PID.TID 0000.0001) %MON ke_mean                      =   2.1508407238387E-04
(PID.TID 0000.0001) %MON ke_vol                       =   1.3226782436723E+18
(PID.TID 0000.0001) %MON vort_r_min                   =  -4.2246788858556E-07
(PID.TID 0000.0001) %MON vort_r_max                   =   4.3616986558519E-07
(PID.TID 0000.0001) %MON vort_a_mean                  =  -2.5205769496047E-05
(PID.TID 0000.0001) %MON vort_a_sd                    =   7.3402851113177E-05
(PID.TID 0000.0001) %MON vort_p_mean                  =  -3.1758669686753E-05
(PID.TID 0000.0001) %MON vort_p_sd                    =   1.3126420733133E-04
(PID.TID 0000.0001) %MON surfExpan_theta_mean         =   3.5747988063989E-06
(PID.TID 0000.0001) %MON surfExpan_salt_mean          =   6.2488107393775E-07
(PID.TID 0000.0001) // =======================================================
(PID.TID 0000.0001) // End MONITOR dynamic field statistics
(PID.TID 0000.0001) // =======================================================
time,SST,SSS,fu,fv,Q,E-P,i0,i1,a,b =   1.4688E+06  8.5907E-01  3.4695E+01 -3.4220E-02 -5.4615E-02  2.6408E+02  0.0000E+00     1     2  6.6667E-02  9.3333E-01
time,fu0,fu1,fu =   1.4688E+06 -3.5633E-02 -1.4435E-02 -3.4220E-02  6.666666666666667E-02  9.333333333333333E-01
 cg2d: Sum(rhs),rhsMax =  -1.11234632615975E-12  9.21972025558462E+00
(PID.TID 0000.0001)                    cg2d_init_res =    7.47898515301480E-01
(PID.TID 0000.0001)                       cg2d_iters =    25
(PID.TID 0000.0001)                         cg2d_res =    4.50111136070060E-14
(PID.TID 0000.0001) // =======================================================
(PID.TID 0000.0001) // Begin MONITOR dynamic field statistics
(PID.TID 0000.0001) // =======================================================
(PID.TID 0000.0001) %MON time_tsnumber                =                    35
(PID.TID 0000.0001) %MON time_secondsf                =   1.5120000000000E+06
(PID.TID 0000.0001) %MON dynstat_eta_max              =   1.0301399791498E+00
(PID.TID 0000.0001) %MON dynstat_eta_min              =  -1.0384478857276E+00
(PID.TID 0000.0001) %MON dynstat_eta_mean             =   5.3357873067143E-16
(PID.TID 0000.0001) %MON dynstat_eta_sd               =   3.6906795417770E-01
(PID.TID 0000.0001) %MON dynstat_eta_del2             =   2.2881389837470E-02
(PID.TID 0000.0001) %MON dynstat_uvel_max             =   1.7466284050856E-01
(PID.TID 0000.0001) %MON dynstat_uvel_min             =  -1.6257160889573E-01
(PID.TID 0000.0001) %MON dynstat_uvel_mean            =  -2.0046229141246E-03
(PID.TID 0000.0001) %MON dynstat_uvel_sd              =   1.5140223768654E-02
(PID.TID 0000.0001) %MON dynstat_uvel_del2            =   3.5226674894638E-03
(PID.TID 0000.0001) %MON dynstat_vvel_max             =   1.7207342279869E-01
(PID.TID 0000.0001) %MON dynstat_vvel_min             =  -1.5461498327436E-01
(PID.TID 0000.0001) %MON dynstat_vvel_mean            =   4.2566789029390E-03
(PID.TID 0000.0001) %MON dynstat_vvel_sd              =   1.4524862956348E-02
(PID.TID 0000.0001) %MON dynstat_vvel_del2            =   3.5496745886028E-03
(PID.TID 0000.0001) %MON dynstat_wvel_max             =   1.9600067178183E-04
(PID.TID 0000.0001) %MON dynstat_wvel_min             =  -1.7692758812274E-04
(PID.TID 0000.0001) %MON dynstat_wvel_mean            =   5.0125777846035E-22
(PID.TID 0000.0001) %MON dynstat_wvel_sd              =   2.4997752571620E-05
(PID.TID 0000.0001) %MON dynstat_wvel_del2            =   8.7323869207211E-06
(PID.TID 0000.0001) %MON dynstat_theta_max            =   2.9451074835717E+01
(PID.TID 0000.0001) %MON dynstat_theta_min            =  -2.0139500432159E+00
(PID.TID 0000.0001) %MON dynstat_theta_mean           =   3.5956386853412E+00
(PID.TID 0000.0001) %MON dynstat_theta_sd             =   4.3543382326949E+00
(PID.TID 0000.0001) %MON dynstat_theta_del2           =   1.3984422850299E-01
(PID.TID 0000.0001) %MON dynstat_salt_max             =   3.7407237965333E+01
(PID.TID 0000.0001) %MON dynstat_salt_min             =   2.9807734119920E+01
(PID.TID 0000.0001) %MON dynstat_salt_mean            =   3.4716468798180E+01
(PID.TID 0000.0001) %MON dynstat_salt_sd              =   2.9545172273496E-01
(PID.TID 0000.0001) %MON dynstat_salt_del2            =   2.6173657022225E-02
(PID.TID 0000.0001) %MON dynstat_sst_max              =   2.9451074835717E+01
(PID.TID 0000.0001) %MON dynstat_sst_min              =  -1.9514660460193E+00
(PID.TID 0000.0001) %MON dynstat_sst_mean             =   1.8529611312020E+01
(PID.TID 0000.0001) %MON dynstat_sst_sd               =   8.9626623458879E+00
(PID.TID 0000.0001) %MON dynstat_sst_del2             =   2.7388436586308E-01
(PID.TID 0000.0001) %MON dynstat_sss_max              =   3.7407237965333E+01
(PID.TID 0000.0001) %MON dynstat_sss_min              =   2.9807734119920E+01
(PID.TID 0000.0001) %MON dynstat_sss_mean             =   3.4852028685546E+01
(PID.TID 0000.0001) %MON dynstat_sss_sd               =   9.6489367954738E-01
(PID.TID 0000.0001) %MON dynstat_sss_del2             =   8.1819215542092E-02
(PID.TID 0000.0001) %MON extforcing_qnet_max          =   4.3497544352214E+02
(PID.TID 0000.0001) %MON extforcing_qnet_min          =  -1.7954050801595E+02
(PID.TID 0000.0001) %MON extforcing_qnet_mean         =  -1.6342707666237E+01
(PID.TID 0000.0001) %MON extforcing_qnet_sd           =   1.0771909522073E+02
(PID.TID 0000.0001) %MON extforcing_qnet_del2         =   9.5655196170201E+00
(PID.TID 0000.0001) %MON extforcing_qsw_max           =   0.0000000000000E+00
(PID.TID 0000.0001) %MON extforcing_qsw_min           =   0.0000000000000E+00
(PID.TID 0000.0001) %MON extforcing_qsw_mean          =   0.0000000000000E+00
(PID.TID 0000.0001) %MON extforcing_qsw_sd            =   0.0000000000000E+00
(PID.TID 0000.0001) %MON extforcing_qsw_del2          =   0.0000000000000E+00
(PID.TID 0000.0001) %MON extforcing_empmr_max         =   0.0000000000000E+00
(PID.TID 0000.0001) %MON extforcing_empmr_min         =   0.0000000000000E+00
(PID.TID 0000.0001) %MON extforcing_empmr_mean        =   0.0000000000000E+00
(PID.TID 0000.0001) %MON extforcing_empmr_sd          =   0.0000000000000E+00
(PID.TID 0000.0001) %MON extforcing_empmr_del2        =   0.0000000000000E+00
(PID.TID 0000.0001) %MON extforcing_fu_max            =   2.7838672995567E-01
(PID.TID 0000.0001) %MON extforcing_fu_min            =  -1.6925448477268E-01
(PID.TID 0000.0001) %MON extforcing_fu_mean           =   1.6110335583504E-02
(PID.TID 0000.0001) %MON extforcing_fu_sd             =   9.0706822910468E-02
(PID.TID 0000.0001) %MON extforcing_fu_del2           =   7.5864984588548E-03
(PID.TID 0000.0001) %MON extforcing_fv_max            =   2.2670442660650E-01
(PID.TID 0000.0001) %MON extforcing_fv_min            =  -1.7615430057049E-01
(PID.TID 0000.0001) %MON extforcing_fv_mean           =  -5.3894195529355E-03
(PID.TID 0000.0001) %MON extforcing_fv_sd             =   4.7622093142011E-02
(PID.TID 0000.0001) %MON extforcing_fv_del2           =   4.7317211388426E-03
(PID.TID 0000.0001) %MON advcfl_uvel_max              =   2.3974264487226E-02
(PID.TID 0000.0001) %MON advcfl_vvel_max              =   1.6715553161937E-02
(PID.TID 0000.0001) %MON advcfl_wvel_max              =   2.1576919597895E-01
(PID.TID 0000.0001) %MON advcfl_W_hf_max              =   1.5254679382689E-01
(PID.TID 0000.0001) %MON pe_b_mean                    =   1.7429859048384E-04
(PID.TID 0000.0001) %MON ke_max                       =   1.5430214652339E-02
(PID.TID 0000.0001) %MON ke_mean                      =   2.0881565765921E-04
(PID.TID 0000.0001) %MON ke_vol                       =   1.3226782436723E+18
(PID.TID 0000.0001) %MON vort_r_min                   =  -4.1005536876497E-07
(PID.TID 0000.0001) %MON vort_r_max                   =   4.5248648935888E-07
(PID.TID 0000.0001) %MON vort_a_mean                  =  -2.5205769467044E-05
(PID.TID 0000.0001) %MON vort_a_sd                    =   7.3402905639763E-05
(PID.TID 0000.0001) %MON vort_p_mean                  =  -3.1758669650210E-05
(PID.TID 0000.0001) %MON vort_p_sd                    =   1.3126429864983E-04
(PID.TID 0000.0001) %MON surfExpan_theta_mean         =   7.7997576876288E-06
(PID.TID 0000.0001) %MON surfExpan_salt_mean          =   1.3166346080648E-06
(PID.TID 0000.0001) // =======================================================
(PID.TID 0000.0001) // End MONITOR dynamic field statistics
(PID.TID 0000.0001) // =======================================================
time,SST,SSS,fu,fv,Q,E-P,i0,i1,a,b =   1.5120E+06  8.3424E-01  3.4690E+01 -3.3866E-02 -5.3955E-02  2.6366E+02  0.0000E+00     1     2  8.3333E-02  9.1667E-01
time,fu0,fu1,fu =   1.5120E+06 -3.5633E-02 -1.4435E-02 -3.3866E-02  8.333333333333333E-02  9.166666666666666E-01
 cg2d: Sum(rhs),rhsMax =  -8.34068925037457E-13  9.07797463257815E+00
(PID.TID 0000.0001)                    cg2d_init_res =    7.31850173148032E-01
(PID.TID 0000.0001)                       cg2d_iters =    25
(PID.TID 0000.0001)                         cg2d_res =    4.71069219298086E-14
(PID.TID 0000.0001) // =======================================================
(PID.TID 0000.0001) // Begin MONITOR dynamic field statistics
(PID.TID 0000.0001) // =======================================================
(PID.TID 0000.0001) %MON time_tsnumber                =                    36
(PID.TID 0000.0001) %MON time_secondsf                =   1.5552000000000E+06
(PID.TID 0000.0001) %MON dynstat_eta_max              =   1.0138431954052E+00
(PID.TID 0000.0001) %MON dynstat_eta_min              =  -1.0409102120762E+00
(PID.TID 0000.0001) %MON dynstat_eta_mean             =   6.8545669886844E-16
(PID.TID 0000.0001) %MON dynstat_eta_sd               =   3.7333014164006E-01
(PID.TID 0000.0001) %MON dynstat_eta_del2             =   2.3101856989265E-02
(PID.TID 0000.0001) %MON dynstat_uvel_max             =   1.7173735064416E-01
(PID.TID 0000.0001) %MON dynstat_uvel_min             =  -1.6604442837836E-01
(PID.TID 0000.0001) %MON dynstat_uvel_mean            =  -1.8582751383202E-03
(PID.TID 0000.0001) %MON dynstat_uvel_sd              =   1.4784909583910E-02
(PID.TID 0000.0001) %MON dynstat_uvel_del2            =   3.4823011628766E-03
(PID.TID 0000.0001) %MON dynstat_vvel_max             =   1.7167997534860E-01
(PID.TID 0000.0001) %MON dynstat_vvel_min             =  -1.4704066828415E-01
(PID.TID 0000.0001) %MON dynstat_vvel_mean            =   4.3583448859856E-03
(PID.TID 0000.0001) %MON dynstat_vvel_sd              =   1.4405280579893E-02
(PID.TID 0000.0001) %MON dynstat_vvel_del2            =   3.5152981940864E-03
(PID.TID 0000.0001) %MON dynstat_wvel_max             =   1.9066587702445E-04
(PID.TID 0000.0001) %MON dynstat_wvel_min             =  -1.7354531860900E-04
(PID.TID 0000.0001) %MON dynstat_wvel_mean            =  -2.2585987963160E-22
(PID.TID 0000.0001) %MON dynstat_wvel_sd              =   2.4357791068350E-05
(PID.TID 0000.0001) %MON dynstat_wvel_del2            =   8.4907891321426E-06
(PID.TID 0000.0001) %MON dynstat_theta_max            =   2.9486654637445E+01
(PID.TID 0000.0001) %MON dynstat_theta_min            =  -2.0225680793895E+00
(PID.TID 0000.0001) %MON dynstat_theta_mean           =   3.5955637396897E+00
(PID.TID 0000.0001) %MON dynstat_theta_sd             =   4.3549053476868E+00
(PID.TID 0000.0001) %MON dynstat_theta_del2           =   1.3983706951205E-01
(PID.TID 0000.0001) %MON dynstat_salt_max             =   3.7406226037880E+01
(PID.TID 0000.0001) %MON dynstat_salt_min             =   2.9811153250200E+01
(PID.TID 0000.0001) %MON dynstat_salt_mean            =   3.4716449225898E+01
(PID.TID 0000.0001) %MON dynstat_salt_sd              =   2.9540639945517E-01
(PID.TID 0000.0001) %MON dynstat_salt_del2            =   2.6172312762337E-02
(PID.TID 0000.0001) %MON dynstat_sst_max              =   2.9486654637445E+01
(PID.TID 0000.0001) %MON dynstat_sst_min              =  -1.9524688809267E+00
(PID.TID 0000.0001) %MON dynstat_sst_mean             =   1.8531812890826E+01
(PID.TID 0000.0001) %MON dynstat_sst_sd               =   8.9661000294582E+00
(PID.TID 0000.0001) %MON dynstat_sst_del2             =   2.7393986166409E-01
(PID.TID 0000.0001) %MON dynstat_sss_max              =   3.7406226037880E+01
(PID.TID 0000.0001) %MON dynstat_sss_min              =   2.9811153250200E+01
(PID.TID 0000.0001) %MON dynstat_sss_mean             =   3.4851006178461E+01
(PID.TID 0000.0001) %MON dynstat_sss_sd               =   9.6503000456713E-01
(PID.TID 0000.0001) %MON dynstat_sss_del2             =   8.1838600833023E-02
(PID.TID 0000.0001) %MON extforcing_qnet_max          =   4.3331590016683E+02
(PID.TID 0000.0001) %MON extforcing_qnet_min          =  -1.7942074839274E+02
(PID.TID 0000.0001) %MON extforcing_qnet_mean         =  -1.6300253082536E+01
(PID.TID 0000.0001) %MON extforcing_qnet_sd           =   1.0718286831669E+02
(PID.TID 0000.0001) %MON extforcing_qnet_del2         =   9.5402517261256E+00
(PID.TID 0000.0001) %MON extforcing_qsw_max           =   0.0000000000000E+00
(PID.TID 0000.0001) %MON extforcing_qsw_min           =   0.0000000000000E+00
(PID.TID 0000.0001) %MON extforcing_qsw_mean          =   0.0000000000000E+00
(PID.TID 0000.0001) %MON extforcing_qsw_sd            =   0.0000000000000E+00
(PID.TID 0000.0001) %MON extforcing_qsw_del2          =   0.0000000000000E+00
(PID.TID 0000.0001) %MON extforcing_empmr_max         =   0.0000000000000E+00
(PID.TID 0000.0001) %MON extforcing_empmr_min         =   0.0000000000000E+00
(PID.TID 0000.0001) %MON extforcing_empmr_mean        =   0.0000000000000E+00
(PID.TID 0000.0001) %MON extforcing_empmr_sd          =   0.0000000000000E+00
(PID.TID 0000.0001) %MON extforcing_empmr_del2        =   0.0000000000000E+00
(PID.TID 0000.0001) %MON extforcing_fu_max            =   2.7828869223595E-01
(PID.TID 0000.0001) %MON extforcing_fu_min            =  -1.7008444666862E-01
(PID.TID 0000.0001) %MON extforcing_fu_mean           =   1.6137485691238E-02
(PID.TID 0000.0001) %MON extforcing_fu_sd             =   9.0628631961093E-02
(PID.TID 0000.0001) %MON extforcing_fu_del2           =   7.5629689694266E-03
(PID.TID 0000.0001) %MON extforcing_fv_max            =   2.2510020310680E-01
(PID.TID 0000.0001) %MON extforcing_fv_min            =  -1.7565865069628E-01
(PID.TID 0000.0001) %MON extforcing_fv_mean           =  -5.4220500062931E-03
(PID.TID 0000.0001) %MON extforcing_fv_sd             =   4.7473619692569E-02
(PID.TID 0000.0001) %MON extforcing_fv_del2           =   4.7030270620819E-03
(PID.TID 0000.0001) %MON advcfl_uvel_max              =   2.3581415686074E-02
(PID.TID 0000.0001) %MON advcfl_vvel_max              =   1.6677332897230E-02
(PID.TID 0000.0001) %MON advcfl_wvel_max              =   2.0956488480662E-01
(PID.TID 0000.0001) %MON advcfl_W_hf_max              =   1.4821863639714E-01
(PID.TID 0000.0001) %MON pe_b_mean                    =   1.7834761677447E-04
(PID.TID 0000.0001) %MON ke_max                       =   1.5194874645530E-02
(PID.TID 0000.0001) %MON ke_mean                      =   2.0256824083515E-04
(PID.TID 0000.0001) %MON ke_vol                       =   1.3226782436723E+18
(PID.TID 0000.0001) %MON vort_r_min                   =  -3.8855906839321E-07
(PID.TID 0000.0001) %MON vort_r_max                   =   4.5715507990463E-07
(PID.TID 0000.0001) %MON vort_a_mean                  =  -2.5205769431051E-05
(PID.TID 0000.0001) %MON vort_a_sd                    =   7.3402949423171E-05
(PID.TID 0000.0001) %MON vort_p_mean                  =  -3.1758669604859E-05
(PID.TID 0000.0001) %MON vort_p_sd                    =   1.3126436299325E-04
(PID.TID 0000.0001) %MON surfExpan_theta_mean         =   1.1956313966208E-05
(PID.TID 0000.0001) %MON surfExpan_salt_mean          =   1.9527850275645E-06
(PID.TID 0000.0001) // =======================================================
(PID.TID 0000.0001) // End MONITOR dynamic field statistics
(PID.TID 0000.0001) // =======================================================
time,SST,SSS,fu,fv,Q,E-P,i0,i1,a,b =   1.5552E+06  8.0940E-01  3.4685E+01 -3.3513E-02 -5.3295E-02  2.6324E+02  0.0000E+00     1     2  1.0000E-01  9.0000E-01
time,fu0,fu1,fu =   1.5552E+06 -3.5633E-02 -1.4435E-02 -3.3513E-02  1.000000000000000E-01  9.000000000000000E-01
 cg2d: Sum(rhs),rhsMax =  -8.70907512773300E-13  8.84823874589379E+00
(PID.TID 0000.0001)                    cg2d_init_res =    7.20721220574601E-01
(PID.TID 0000.0001)                       cg2d_iters =    25
(PID.TID 0000.0001)                         cg2d_res =    4.86483544279842E-14
(PID.TID 0000.0001) // =======================================================
(PID.TID 0000.0001) // Begin MONITOR dynamic field statistics
(PID.TID 0000.0001) // =======================================================
(PID.TID 0000.0001) %MON time_tsnumber                =                    37
(PID.TID 0000.0001) %MON time_secondsf                =   1.5984000000000E+06
(PID.TID 0000.0001) %MON dynstat_eta_max              =   9.8779134277630E-01
(PID.TID 0000.0001) %MON dynstat_eta_min              =  -1.0416979184046E+00
(PID.TID 0000.0001) %MON dynstat_eta_mean             =   4.3922632943733E-16
(PID.TID 0000.0001) %MON dynstat_eta_sd               =   3.7813172403160E-01
(PID.TID 0000.0001) %MON dynstat_eta_del2             =   2.3382183333189E-02
(PID.TID 0000.0001) %MON dynstat_uvel_max             =   1.6315060198414E-01
(PID.TID 0000.0001) %MON dynstat_uvel_min             =  -1.6926596239579E-01
(PID.TID 0000.0001) %MON dynstat_uvel_mean            =  -1.7618113294403E-03
(PID.TID 0000.0001) %MON dynstat_uvel_sd              =   1.4471571636863E-02
(PID.TID 0000.0001) %MON dynstat_uvel_del2            =   3.4402276977033E-03
(PID.TID 0000.0001) %MON dynstat_vvel_max             =   1.6910359344978E-01
(PID.TID 0000.0001) %MON dynstat_vvel_min             =  -1.3701622753025E-01
(PID.TID 0000.0001) %MON dynstat_vvel_mean            =   4.4142229796029E-03
(PID.TID 0000.0001) %MON dynstat_vvel_sd              =   1.4252900055278E-02
(PID.TID 0000.0001) %MON dynstat_vvel_del2            =   3.4763731926755E-03
(PID.TID 0000.0001) %MON dynstat_wvel_max             =   1.8506780272663E-04
(PID.TID 0000.0001) %MON dynstat_wvel_min             =  -1.6961875116966E-04
(PID.TID 0000.0001) %MON dynstat_wvel_mean            =  -3.2438543187671E-22
(PID.TID 0000.0001) %MON dynstat_wvel_sd              =   2.3667499308451E-05
(PID.TID 0000.0001) %MON dynstat_wvel_del2            =   8.2410152552269E-06
(PID.TID 0000.0001) %MON dynstat_theta_max            =   2.9520468203128E+01
(PID.TID 0000.0001) %MON dynstat_theta_min            =  -2.0285836338390E+00
(PID.TID 0000.0001) %MON dynstat_theta_mean           =   3.5954423995796E+00
(PID.TID 0000.0001) %MON dynstat_theta_sd             =   4.3553290144064E+00
(PID.TID 0000.0001) %MON dynstat_theta_del2           =   1.3982553246405E-01
(PID.TID 0000.0001) %MON dynstat_salt_max             =   3.7405311873638E+01
(PID.TID 0000.0001) %MON dynstat_salt_min             =   2.9814500627805E+01
(PID.TID 0000.0001) %MON dynstat_salt_mean            =   3.4716422898818E+01
(PID.TID 0000.0001) %MON dynstat_salt_sd              =   2.9535892458148E-01
(PID.TID 0000.0001) %MON dynstat_salt_del2            =   2.6167644301620E-02
(PID.TID 0000.0001) %MON dynstat_sst_max              =   2.9520468203128E+01
(PID.TID 0000.0001) %MON dynstat_sst_min              =  -1.9521755944267E+00
(PID.TID 0000.0001) %MON dynstat_sst_mean             =   1.8533854879954E+01
(PID.TID 0000.0001) %MON dynstat_sst_sd               =   8.9691370463775E+00
(PID.TID 0000.0001) %MON dynstat_sst_del2             =   2.7404232980804E-01
(PID.TID 0000.0001) %MON dynstat_sss_max              =   3.7405311764896E+01
(PID.TID 0000.0001) %MON dynstat_sss_min              =   2.9814500627805E+01
(PID.TID 0000.0001) %MON dynstat_sss_mean             =   3.4849919588453E+01
(PID.TID 0000.0001) %MON dynstat_sss_sd               =   9.6522259100461E-01
(PID.TID 0000.0001) %MON dynstat_sss_del2             =   8.1843772742320E-02
(PID.TID 0000.0001) %MON extforcing_qnet_max          =   4.3165635681152E+02
(PID.TID 0000.0001) %MON extforcing_qnet_min          =  -1.7930098876953E+02
(PID.TID 0000.0001) %MON extforcing_qnet_mean         =  -1.6257798498834E+01
(PID.TID 0000.0001) %MON extforcing_qnet_sd           =   1.0664755624532E+02
(PID.TID 0000.0001) %MON extforcing_qnet_del2         =   9.5151582064678E+00
(PID.TID 0000.0001) %MON extforcing_qsw_max           =   0.0000000000000E+00
(PID.TID 0000.0001) %MON extforcing_qsw_min           =   0.0000000000000E+00
(PID.TID 0000.0001) %MON extforcing_qsw_mean          =   0.0000000000000E+00
(PID.TID 0000.0001) %MON extforcing_qsw_sd            =   0.0000000000000E+00
(PID.TID 0000.0001) %MON extforcing_qsw_del2          =   0.0000000000000E+00
(PID.TID 0000.0001) %MON extforcing_empmr_max         =   0.0000000000000E+00
(PID.TID 0000.0001) %MON extforcing_empmr_min         =   0.0000000000000E+00
(PID.TID 0000.0001) %MON extforcing_empmr_mean        =   0.0000000000000E+00
(PID.TID 0000.0001) %MON extforcing_empmr_sd          =   0.0000000000000E+00
(PID.TID 0000.0001) %MON extforcing_empmr_del2        =   0.0000000000000E+00
(PID.TID 0000.0001) %MON extforcing_fu_max            =   2.7819065451622E-01
(PID.TID 0000.0001) %MON extforcing_fu_min            =  -1.7091440856457E-01
(PID.TID 0000.0001) %MON extforcing_fu_mean           =   1.6164635798973E-02
(PID.TID 0000.0001) %MON extforcing_fu_sd             =   9.0554740471920E-02
(PID.TID 0000.0001) %MON extforcing_fu_del2           =   7.5402425050921E-03
(PID.TID 0000.0001) %MON extforcing_fv_max            =   2.2349597960711E-01
(PID.TID 0000.0001) %MON extforcing_fv_min            =  -1.7516300082207E-01
(PID.TID 0000.0001) %MON extforcing_fv_mean           =  -5.4546804596506E-03
(PID.TID 0000.0001) %MON extforcing_fv_sd             =   4.7328470565258E-02
(PID.TID 0000.0001) %MON extforcing_fv_del2           =   4.6749947347329E-03
(PID.TID 0000.0001) %MON advcfl_uvel_max              =   2.2955377875481E-02
(PID.TID 0000.0001) %MON advcfl_vvel_max              =   1.6427058055859E-02
(PID.TID 0000.0001) %MON advcfl_wvel_max              =   1.9607000791352E-01
(PID.TID 0000.0001) %MON advcfl_W_hf_max              =   1.3872016483414E-01
(PID.TID 0000.0001) %MON pe_b_mean                    =   1.8296475133826E-04
(PID.TID 0000.0001) %MON ke_max                       =   1.5469366813780E-02
(PID.TID 0000.0001) %MON ke_mean                      =   1.9650436360547E-04
(PID.TID 0000.0001) %MON ke_vol                       =   1.3226782436723E+18
(PID.TID 0000.0001) %MON vort_r_min                   =  -3.5851995833178E-07
(PID.TID 0000.0001) %MON vort_r_max                   =   4.4986558976900E-07
(PID.TID 0000.0001) %MON vort_a_mean                  =  -2.5205769389981E-05
(PID.TID 0000.0001) %MON vort_a_sd                    =   7.3402983002535E-05
(PID.TID 0000.0001) %MON vort_p_mean                  =  -3.1758669553113E-05
(PID.TID 0000.0001) %MON vort_p_sd                    =   1.3126440279005E-04
(PID.TID 0000.0001) %MON surfExpan_theta_mean         =   1.5911921770484E-05
(PID.TID 0000.0001) %MON surfExpan_salt_mean          =   2.5104711189504E-06
(PID.TID 0000.0001) // =======================================================
(PID.TID 0000.0001) // End MONITOR dynamic field statistics
(PID.TID 0000.0001) // =======================================================
time,SST,SSS,fu,fv,Q,E-P,i0,i1,a,b =   1.5984E+06  7.8456E-01  3.4680E+01 -3.3160E-02 -5.2634E-02  2.6282E+02  0.0000E+00     1     2  1.1667E-01  8.8333E-01
time,fu0,fu1,fu =   1.5984E+06 -3.5633E-02 -1.4435E-02 -3.3160E-02  1.166666666666667E-01  8.833333333333333E-01
 cg2d: Sum(rhs),rhsMax =  -6.24576779184594E-13  8.53412703082459E+00
(PID.TID 0000.0001)                    cg2d_init_res =    7.18354442152785E-01
(PID.TID 0000.0001)                       cg2d_iters =    25
(PID.TID 0000.0001)                         cg2d_res =    4.98838329180982E-14
(PID.TID 0000.0001) // =======================================================
(PID.TID 0000.0001) // Begin MONITOR dynamic field statistics
(PID.TID 0000.0001) // =======================================================
(PID.TID 0000.0001) %MON time_tsnumber                =                    38
(PID.TID 0000.0001) %MON time_secondsf                =   1.6416000000000E+06
(PID.TID 0000.0001) %MON dynstat_eta_max              =   9.5238141835376E-01
(PID.TID 0000.0001) %MON dynstat_eta_min              =  -1.0727151249430E+00
(PID.TID 0000.0001) %MON dynstat_eta_mean             =   2.6231248168824E-16
(PID.TID 0000.0001) %MON dynstat_eta_sd               =   3.8325680372029E-01
(PID.TID 0000.0001) %MON dynstat_eta_del2             =   2.3604775045553E-02
(PID.TID 0000.0001) %MON dynstat_uvel_max             =   1.4912307722040E-01
(PID.TID 0000.0001) %MON dynstat_uvel_min             =  -1.7223136171745E-01
(PID.TID 0000.0001) %MON dynstat_uvel_mean            =  -1.7093355547680E-03
(PID.TID 0000.0001) %MON dynstat_uvel_sd              =   1.4209284118708E-02
(PID.TID 0000.0001) %MON dynstat_uvel_del2            =   3.3975112123417E-03
(PID.TID 0000.0001) %MON dynstat_vvel_max             =   1.6437697129767E-01
(PID.TID 0000.0001) %MON dynstat_vvel_min             =  -1.3835066204881E-01
(PID.TID 0000.0001) %MON dynstat_vvel_mean            =   4.4221728173087E-03
(PID.TID 0000.0001) %MON dynstat_vvel_sd              =   1.4076608224808E-02
(PID.TID 0000.0001) %MON dynstat_vvel_del2            =   3.4348846522562E-03
(PID.TID 0000.0001) %MON dynstat_wvel_max             =   1.7925016833111E-04
(PID.TID 0000.0001) %MON dynstat_wvel_min             =  -1.6510899086415E-04
(PID.TID 0000.0001) %MON dynstat_wvel_mean            =   8.2929018107550E-22
(PID.TID 0000.0001) %MON dynstat_wvel_sd              =   2.2975858938588E-05
(PID.TID 0000.0001) %MON dynstat_wvel_del2            =   8.0198476659482E-06
(PID.TID 0000.0001) %MON dynstat_theta_max            =   2.9546497030123E+01
(PID.TID 0000.0001) %MON dynstat_theta_min            =  -2.0318221241243E+00
(PID.TID 0000.0001) %MON dynstat_theta_mean           =   3.5952778048506E+00
(PID.TID 0000.0001) %MON dynstat_theta_sd             =   4.3555926991661E+00
(PID.TID 0000.0001) %MON dynstat_theta_del2           =   1.3980684827724E-01
(PID.TID 0000.0001) %MON dynstat_salt_max             =   3.7404515749147E+01
(PID.TID 0000.0001) %MON dynstat_salt_min             =   2.9817737572446E+01
(PID.TID 0000.0001) %MON dynstat_salt_mean            =   3.4716390857856E+01
(PID.TID 0000.0001) %MON dynstat_salt_sd              =   2.9530971658061E-01
(PID.TID 0000.0001) %MON dynstat_salt_del2            =   2.6158296204939E-02
(PID.TID 0000.0001) %MON dynstat_sst_max              =   2.9546497030123E+01
(PID.TID 0000.0001) %MON dynstat_sst_min              =  -1.9524073735264E+00
(PID.TID 0000.0001) %MON dynstat_sst_mean             =   1.8535861732819E+01
(PID.TID 0000.0001) %MON dynstat_sst_sd               =   8.9714090075077E+00
(PID.TID 0000.0001) %MON dynstat_sst_del2             =   2.7424562922964E-01
(PID.TID 0000.0001) %MON dynstat_sss_max              =   3.7404515504230E+01
(PID.TID 0000.0001) %MON dynstat_sss_min              =   2.9817737572446E+01
(PID.TID 0000.0001) %MON dynstat_sss_mean             =   3.4848792316784E+01
(PID.TID 0000.0001) %MON dynstat_sss_sd               =   9.6545547256106E-01
(PID.TID 0000.0001) %MON dynstat_sss_del2             =   8.1835402567743E-02
(PID.TID 0000.0001) %MON extforcing_qnet_max          =   4.2999681345622E+02
(PID.TID 0000.0001) %MON extforcing_qnet_min          =  -1.7918122914632E+02
(PID.TID 0000.0001) %MON extforcing_qnet_mean         =  -1.6215343915132E+01
(PID.TID 0000.0001) %MON extforcing_qnet_sd           =   1.0611317285187E+02
(PID.TID 0000.0001) %MON extforcing_qnet_del2         =   9.4902334731214E+00
(PID.TID 0000.0001) %MON extforcing_qsw_max           =   0.0000000000000E+00
(PID.TID 0000.0001) %MON extforcing_qsw_min           =   0.0000000000000E+00
(PID.TID 0000.0001) %MON extforcing_qsw_mean          =   0.0000000000000E+00
(PID.TID 0000.0001) %MON extforcing_qsw_sd            =   0.0000000000000E+00
(PID.TID 0000.0001) %MON extforcing_qsw_del2          =   0.0000000000000E+00
(PID.TID 0000.0001) %MON extforcing_empmr_max         =   0.0000000000000E+00
(PID.TID 0000.0001) %MON extforcing_empmr_min         =   0.0000000000000E+00
(PID.TID 0000.0001) %MON extforcing_empmr_mean        =   0.0000000000000E+00
(PID.TID 0000.0001) %MON extforcing_empmr_sd          =   0.0000000000000E+00
(PID.TID 0000.0001) %MON extforcing_empmr_del2        =   0.0000000000000E+00
(PID.TID 0000.0001) %MON extforcing_fu_max            =   2.7809261679649E-01
(PID.TID 0000.0001) %MON extforcing_fu_min            =  -1.7174437046051E-01
(PID.TID 0000.0001) %MON extforcing_fu_mean           =   1.6191785906707E-02
(PID.TID 0000.0001) %MON extforcing_fu_sd             =   9.0485158975952E-02
(PID.TID 0000.0001) %MON extforcing_fu_del2           =   7.5189116864129E-03
(PID.TID 0000.0001) %MON extforcing_fv_max            =   2.2189175610741E-01
(PID.TID 0000.0001) %MON extforcing_fv_min            =  -1.7466735094786E-01
(PID.TID 0000.0001) %MON extforcing_fv_mean           =  -5.4873109130082E-03
(PID.TID 0000.0001) %MON extforcing_fv_sd             =   4.7186676437547E-02
(PID.TID 0000.0001) %MON extforcing_fv_del2           =   4.6476196602915E-03
(PID.TID 0000.0001) %MON advcfl_uvel_max              =   2.2140542635445E-02
(PID.TID 0000.0001) %MON advcfl_vvel_max              =   1.5967904616734E-02
(PID.TID 0000.0001) %MON advcfl_wvel_max              =   1.7568850535732E-01
(PID.TID 0000.0001) %MON advcfl_W_hf_max              =   1.4079704111481E-01
(PID.TID 0000.0001) %MON pe_b_mean                    =   1.8795805699509E-04
(PID.TID 0000.0001) %MON ke_max                       =   1.5716555962745E-02
(PID.TID 0000.0001) %MON ke_mean                      =   1.9079335944745E-04
(PID.TID 0000.0001) %MON ke_vol                       =   1.3226782436723E+18
(PID.TID 0000.0001) %MON vort_r_min                   =  -3.4230449512137E-07
(PID.TID 0000.0001) %MON vort_r_max                   =   4.4375600902725E-07
(PID.TID 0000.0001) %MON vort_a_mean                  =  -2.5205769346685E-05
(PID.TID 0000.0001) %MON vort_a_sd                    =   7.3403007161495E-05
(PID.TID 0000.0001) %MON vort_p_mean                  =  -3.1758669498560E-05
(PID.TID 0000.0001) %MON vort_p_sd                    =   1.3126442087082E-04
(PID.TID 0000.0001) %MON surfExpan_theta_mean         =   1.9554277014553E-05
(PID.TID 0000.0001) %MON surfExpan_salt_mean          =   2.9723991748584E-06
(PID.TID 0000.0001) // =======================================================
(PID.TID 0000.0001) // End MONITOR dynamic field statistics
(PID.TID 0000.0001) // =======================================================
time,SST,SSS,fu,fv,Q,E-P,i0,i1,a,b =   1.6416E+06  7.5972E-01  3.4675E+01 -3.2807E-02 -5.1974E-02  2.6240E+02  0.0000E+00     1     2  1.3333E-01  8.6667E-01
time,fu0,fu1,fu =   1.6416E+06 -3.5633E-02 -1.4435E-02 -3.2807E-02  1.333333333333333E-01  8.666666666666667E-01
 cg2d: Sum(rhs),rhsMax =  -1.08458381165022E-12  8.14100359191200E+00
(PID.TID 0000.0001)                    cg2d_init_res =    7.28763454925845E-01
(PID.TID 0000.0001)                       cg2d_iters =    25
(PID.TID 0000.0001)                         cg2d_res =    5.10395942057832E-14
(PID.TID 0000.0001) // =======================================================
(PID.TID 0000.0001) // Begin MONITOR dynamic field statistics
(PID.TID 0000.0001) // =======================================================
(PID.TID 0000.0001) %MON time_tsnumber                =                    39
(PID.TID 0000.0001) %MON time_secondsf                =   1.6848000000000E+06
(PID.TID 0000.0001) %MON dynstat_eta_max              =   9.0820378989996E-01
(PID.TID 0000.0001) %MON dynstat_eta_min              =  -1.1097175286247E+00
(PID.TID 0000.0001) %MON dynstat_eta_mean             =   8.0860902880587E-16
(PID.TID 0000.0001) %MON dynstat_eta_sd               =   3.8850749951393E-01
(PID.TID 0000.0001) %MON dynstat_eta_del2             =   2.3796009016554E-02
(PID.TID 0000.0001) %MON dynstat_uvel_max             =   1.3589780279863E-01
(PID.TID 0000.0001) %MON dynstat_uvel_min             =  -1.7493738616789E-01
(PID.TID 0000.0001) %MON dynstat_uvel_mean            =  -1.6941797212047E-03
(PID.TID 0000.0001) %MON dynstat_uvel_sd              =   1.4004167207876E-02
(PID.TID 0000.0001) %MON dynstat_uvel_del2            =   3.3561333117499E-03
(PID.TID 0000.0001) %MON dynstat_vvel_max             =   1.5758150632018E-01
(PID.TID 0000.0001) %MON dynstat_vvel_min             =  -1.3954392102036E-01
(PID.TID 0000.0001) %MON dynstat_vvel_mean            =   4.3814295453282E-03
(PID.TID 0000.0001) %MON dynstat_vvel_sd              =   1.3886388642514E-02
(PID.TID 0000.0001) %MON dynstat_vvel_del2            =   3.3907222393338E-03
(PID.TID 0000.0001) %MON dynstat_wvel_max             =   1.7330806036175E-04
(PID.TID 0000.0001) %MON dynstat_wvel_min             =  -1.6000284701793E-04
(PID.TID 0000.0001) %MON dynstat_wvel_mean            =  -3.3803290099225E-22
(PID.TID 0000.0001) %MON dynstat_wvel_sd              =   2.2331507479563E-05
(PID.TID 0000.0001) %MON dynstat_wvel_del2            =   7.8312460063884E-06
(PID.TID 0000.0001) %MON dynstat_theta_max            =   2.9563961162862E+01
(PID.TID 0000.0001) %MON dynstat_theta_min            =  -2.0322607498335E+00
(PID.TID 0000.0001) %MON dynstat_theta_mean           =   3.5950742414780E+00
(PID.TID 0000.0001) %MON dynstat_theta_sd             =   4.3556862442351E+00
(PID.TID 0000.0001) %MON dynstat_theta_del2           =   1.3976234184989E-01
(PID.TID 0000.0001) %MON dynstat_salt_max             =   3.7403852157772E+01
(PID.TID 0000.0001) %MON dynstat_salt_min             =   2.9820833624887E+01
(PID.TID 0000.0001) %MON dynstat_salt_mean            =   3.4716354300115E+01
(PID.TID 0000.0001) %MON dynstat_salt_sd              =   2.9525925977461E-01
(PID.TID 0000.0001) %MON dynstat_salt_del2            =   2.6149607119531E-02
(PID.TID 0000.0001) %MON dynstat_sst_max              =   2.9563961162862E+01
(PID.TID 0000.0001) %MON dynstat_sst_min              =  -1.9519907241226E+00
(PID.TID 0000.0001) %MON dynstat_sst_mean             =   1.8538030885596E+01
(PID.TID 0000.0001) %MON dynstat_sst_sd               =   8.9726213372969E+00
(PID.TID 0000.0001) %MON dynstat_sst_del2             =   2.7439046356031E-01
(PID.TID 0000.0001) %MON dynstat_sss_max              =   3.7403851767505E+01
(PID.TID 0000.0001) %MON dynstat_sss_min              =   2.9820833624887E+01
(PID.TID 0000.0001) %MON dynstat_sss_mean             =   3.4847692305586E+01
(PID.TID 0000.0001) %MON dynstat_sss_sd               =   9.6571275026261E-01
(PID.TID 0000.0001) %MON dynstat_sss_del2             =   8.1862468157311E-02
(PID.TID 0000.0001) %MON extforcing_qnet_max          =   4.2833727010091E+02
(PID.TID 0000.0001) %MON extforcing_qnet_min          =  -1.7906146952311E+02
(PID.TID 0000.0001) %MON extforcing_qnet_mean         =  -1.6172889331431E+01
(PID.TID 0000.0001) %MON extforcing_qnet_sd           =   1.0557973223763E+02
(PID.TID 0000.0001) %MON extforcing_qnet_del2         =   9.4654256987229E+00
(PID.TID 0000.0001) %MON extforcing_qsw_max           =   0.0000000000000E+00
(PID.TID 0000.0001) %MON extforcing_qsw_min           =   0.0000000000000E+00
(PID.TID 0000.0001) %MON extforcing_qsw_mean          =   0.0000000000000E+00
(PID.TID 0000.0001) %MON extforcing_qsw_sd            =   0.0000000000000E+00
(PID.TID 0000.0001) %MON extforcing_qsw_del2          =   0.0000000000000E+00
(PID.TID 0000.0001) %MON extforcing_empmr_max         =   0.0000000000000E+00
(PID.TID 0000.0001) %MON extforcing_empmr_min         =   0.0000000000000E+00
(PID.TID 0000.0001) %MON extforcing_empmr_mean        =   0.0000000000000E+00
(PID.TID 0000.0001) %MON extforcing_empmr_sd          =   0.0000000000000E+00
(PID.TID 0000.0001) %MON extforcing_empmr_del2        =   0.0000000000000E+00
(PID.TID 0000.0001) %MON extforcing_fu_max            =   2.7799457907677E-01
(PID.TID 0000.0001) %MON extforcing_fu_min            =  -1.7257433235645E-01
(PID.TID 0000.0001) %MON extforcing_fu_mean           =   1.6218936014442E-02
(PID.TID 0000.0001) %MON extforcing_fu_sd             =   9.0419897423294E-02
(PID.TID 0000.0001) %MON extforcing_fu_del2           =   7.4989844909920E-03
(PID.TID 0000.0001) %MON extforcing_fv_max            =   2.2028753260771E-01
(PID.TID 0000.0001) %MON extforcing_fv_min            =  -1.7417170107365E-01
(PID.TID 0000.0001) %MON extforcing_fv_mean           =  -5.5199413663658E-03
(PID.TID 0000.0001) %MON extforcing_fv_sd             =   4.7048267643353E-02
(PID.TID 0000.0001) %MON extforcing_fv_del2           =   4.6213245194603E-03
(PID.TID 0000.0001) %MON advcfl_uvel_max              =   2.1184356981444E-02
(PID.TID 0000.0001) %MON advcfl_vvel_max              =   1.5307779687248E-02
(PID.TID 0000.0001) %MON advcfl_wvel_max              =   1.8002461060005E-01
(PID.TID 0000.0001) %MON advcfl_W_hf_max              =   1.4609834689876E-01
(PID.TID 0000.0001) %MON pe_b_mean                    =   1.9314346274369E-04
(PID.TID 0000.0001) %MON ke_max                       =   1.5936282322907E-02
(PID.TID 0000.0001) %MON ke_mean                      =   1.8559176529593E-04
(PID.TID 0000.0001) %MON ke_vol                       =   1.3226782436723E+18
(PID.TID 0000.0001) %MON vort_r_min                   =  -3.5031527299400E-07
(PID.TID 0000.0001) %MON vort_r_max                   =   5.0499129404327E-07
(PID.TID 0000.0001) %MON vort_a_mean                  =  -2.5205769303327E-05
(PID.TID 0000.0001) %MON vort_a_sd                    =   7.3403022901165E-05
(PID.TID 0000.0001) %MON vort_p_mean                  =  -3.1758669443930E-05
(PID.TID 0000.0001) %MON vort_p_sd                    =   1.3126442058492E-04
(PID.TID 0000.0001) %MON surfExpan_theta_mean         =   2.2791343621002E-05
(PID.TID 0000.0001) %MON surfExpan_salt_mean          =   3.3263426865368E-06
(PID.TID 0000.0001) // =======================================================
(PID.TID 0000.0001) // End MONITOR dynamic field statistics
(PID.TID 0000.0001) // =======================================================
time,SST,SSS,fu,fv,Q,E-P,i0,i1,a,b =   1.6848E+06  7.3488E-01  3.4671E+01 -3.2453E-02 -5.1313E-02  2.6198E+02  0.0000E+00     1     2  1.5000E-01  8.5000E-01
time,fu0,fu1,fu =   1.6848E+06 -3.5633E-02 -1.4435E-02 -3.2453E-02  1.500000000000000E-01  8.500000000000000E-01
 cg2d: Sum(rhs),rhsMax =  -7.02903013571898E-13  7.67572500462244E+00
(PID.TID 0000.0001)                    cg2d_init_res =    7.55599764184688E-01
(PID.TID 0000.0001)                       cg2d_iters =    25
(PID.TID 0000.0001)                         cg2d_res =    5.21531112466974E-14
(PID.TID 0000.0001) // =======================================================
(PID.TID 0000.0001) // Begin MONITOR dynamic field statistics
(PID.TID 0000.0001) // =======================================================
(PID.TID 0000.0001) %MON time_tsnumber                =                    40
(PID.TID 0000.0001) %MON time_secondsf                =   1.7280000000000E+06
(PID.TID 0000.0001) %MON dynstat_eta_max              =   8.5601602996977E-01
(PID.TID 0000.0001) %MON dynstat_eta_min              =  -1.1435829914742E+00
(PID.TID 0000.0001) %MON dynstat_eta_mean             =   4.8451519901849E-16
(PID.TID 0000.0001) %MON dynstat_eta_sd               =   3.9371925617949E-01
(PID.TID 0000.0001) %MON dynstat_eta_del2             =   2.3980478874978E-02
(PID.TID 0000.0001) %MON dynstat_uvel_max             =   1.4362961453350E-01
(PID.TID 0000.0001) %MON dynstat_uvel_min             =  -1.7738225122725E-01
(PID.TID 0000.0001) %MON dynstat_uvel_mean            =  -1.7091973996988E-03
(PID.TID 0000.0001) %MON dynstat_uvel_sd              =   1.3858836069903E-02
(PID.TID 0000.0001) %MON dynstat_uvel_del2            =   3.3171523561438E-03
(PID.TID 0000.0001) %MON dynstat_vvel_max             =   1.5062249187297E-01
(PID.TID 0000.0001) %MON dynstat_vvel_min             =  -1.4003429153612E-01
(PID.TID 0000.0001) %MON dynstat_vvel_mean            =   4.2925077355454E-03
(PID.TID 0000.0001) %MON dynstat_vvel_sd              =   1.3692551741541E-02
(PID.TID 0000.0001) %MON dynstat_vvel_del2            =   3.3450938815365E-03
(PID.TID 0000.0001) %MON dynstat_wvel_max             =   1.6738052358178E-04
(PID.TID 0000.0001) %MON dynstat_wvel_min             =  -1.5431044391180E-04
(PID.TID 0000.0001) %MON dynstat_wvel_mean            =  -2.6506481506984E-22
(PID.TID 0000.0001) %MON dynstat_wvel_sd              =   2.1776822383574E-05
(PID.TID 0000.0001) %MON dynstat_wvel_del2            =   7.6874484776890E-06
(PID.TID 0000.0001) %MON dynstat_theta_max            =   2.9572406408968E+01
(PID.TID 0000.0001) %MON dynstat_theta_min            =  -2.0300105624127E+00
(PID.TID 0000.0001) %MON dynstat_theta_mean           =   3.5948368648719E+00
(PID.TID 0000.0001) %MON dynstat_theta_sd             =   4.3556073135065E+00
(PID.TID 0000.0001) %MON dynstat_theta_del2           =   1.3974140875712E-01
(PID.TID 0000.0001) %MON dynstat_salt_max             =   3.7403329011095E+01
(PID.TID 0000.0001) %MON dynstat_salt_min             =   2.9823766574950E+01
(PID.TID 0000.0001) %MON dynstat_salt_mean            =   3.4716314522798E+01
(PID.TID 0000.0001) %MON dynstat_salt_sd              =   2.9520845475199E-01
(PID.TID 0000.0001) %MON dynstat_salt_del2            =   2.6135996966655E-02
(PID.TID 0000.0001) %MON dynstat_sst_max              =   2.9572406408968E+01
(PID.TID 0000.0001) %MON dynstat_sst_min              =  -1.9512118143320E+00
(PID.TID 0000.0001) %MON dynstat_sst_mean             =   1.8540025228805E+01
(PID.TID 0000.0001) %MON dynstat_sst_sd               =   8.9731263074176E+00
(PID.TID 0000.0001) %MON dynstat_sst_del2             =   2.7463757506376E-01
(PID.TID 0000.0001) %MON dynstat_sss_max              =   3.7403328470695E+01
(PID.TID 0000.0001) %MON dynstat_sss_min              =   2.9823766574950E+01
(PID.TID 0000.0001) %MON dynstat_sss_mean             =   3.4846576909665E+01
(PID.TID 0000.0001) %MON dynstat_sss_sd               =   9.6597311399220E-01
(PID.TID 0000.0001) %MON dynstat_sss_del2             =   8.1850986558673E-02
(PID.TID 0000.0001) %MON extforcing_qnet_max          =   4.2667772674561E+02
(PID.TID 0000.0001) %MON extforcing_qnet_min          =  -1.7894170989990E+02
(PID.TID 0000.0001) %MON extforcing_qnet_mean         =  -1.6130434747729E+01
(PID.TID 0000.0001) %MON extforcing_qnet_sd           =   1.0504724876520E+02
(PID.TID 0000.0001) %MON extforcing_qnet_del2         =   9.4408486030587E+00
(PID.TID 0000.0001) %MON extforcing_qsw_max           =   0.0000000000000E+00
(PID.TID 0000.0001) %MON extforcing_qsw_min           =   0.0000000000000E+00
(PID.TID 0000.0001) %MON extforcing_qsw_mean          =   0.0000000000000E+00
(PID.TID 0000.0001) %MON extforcing_qsw_sd            =   0.0000000000000E+00
(PID.TID 0000.0001) %MON extforcing_qsw_del2          =   0.0000000000000E+00
(PID.TID 0000.0001) %MON extforcing_empmr_max         =   0.0000000000000E+00
(PID.TID 0000.0001) %MON extforcing_empmr_min         =   0.0000000000000E+00
(PID.TID 0000.0001) %MON extforcing_empmr_mean        =   0.0000000000000E+00
(PID.TID 0000.0001) %MON extforcing_empmr_sd          =   0.0000000000000E+00
(PID.TID 0000.0001) %MON extforcing_empmr_del2        =   0.0000000000000E+00
(PID.TID 0000.0001) %MON extforcing_fu_max            =   2.7789654135704E-01
(PID.TID 0000.0001) %MON extforcing_fu_min            =  -1.7340429425240E-01
(PID.TID 0000.0001) %MON extforcing_fu_mean           =   1.6246086122176E-02
(PID.TID 0000.0001) %MON extforcing_fu_sd             =   9.0358965174153E-02
(PID.TID 0000.0001) %MON extforcing_fu_del2           =   7.4796294872858E-03
(PID.TID 0000.0001) %MON extforcing_fv_max            =   2.1868330910802E-01
(PID.TID 0000.0001) %MON extforcing_fv_min            =  -1.7367605119944E-01
(PID.TID 0000.0001) %MON extforcing_fv_mean           =  -5.5525718197234E-03
(PID.TID 0000.0001) %MON extforcing_fv_sd             =   4.6913274146055E-02
(PID.TID 0000.0001) %MON extforcing_fv_del2           =   4.5965818815817E-03
(PID.TID 0000.0001) %MON advcfl_uvel_max              =   2.0135570165190E-02
(PID.TID 0000.0001) %MON advcfl_vvel_max              =   1.4631767238289E-02
(PID.TID 0000.0001) %MON advcfl_wvel_max              =   1.8154758435099E-01
(PID.TID 0000.0001) %MON advcfl_W_hf_max              =   1.4699307427176E-01
(PID.TID 0000.0001) %MON pe_b_mean                    =   1.9836018839142E-04
(PID.TID 0000.0001) %MON ke_max                       =   1.6128811253870E-02
(PID.TID 0000.0001) %MON ke_mean                      =   1.8102905660140E-04
(PID.TID 0000.0001) %MON ke_vol                       =   1.3226782436723E+18
(PID.TID 0000.0001) %MON vort_r_min                   =  -3.7423484615174E-07
(PID.TID 0000.0001) %MON vort_r_max                   =   5.5504025286038E-07
(PID.TID 0000.0001) %MON vort_a_mean                  =  -2.5205769262078E-05
(PID.TID 0000.0001) %MON vort_a_sd                    =   7.3403031382140E-05
(PID.TID 0000.0001) %MON vort_p_mean                  =  -3.1758669391957E-05
(PID.TID 0000.0001) %MON vort_p_sd                    =   1.3126440563395E-04
(PID.TID 0000.0001) %MON surfExpan_theta_mean         =   2.5556686660429E-05
(PID.TID 0000.0001) %MON surfExpan_salt_mean          =   3.5652735963215E-06
(PID.TID 0000.0001) // =======================================================
(PID.TID 0000.0001) // End MONITOR dynamic field statistics
(PID.TID 0000.0001) // =======================================================
time,SST,SSS,fu,fv,Q,E-P,i0,i1,a,b =   1.7280E+06  7.1005E-01  3.4666E+01 -3.2100E-02 -5.0653E-02  2.6156E+02  0.0000E+00     1     2  1.6667E-01  8.3333E-01
time,fu0,fu1,fu =   1.7280E+06 -3.5633E-02 -1.4435E-02 -3.2100E-02  1.666666666666667E-01  8.333333333333334E-01
 cg2d: Sum(rhs),rhsMax =  -4.90357754401316E-13  7.14638712858150E+00
(PID.TID 0000.0001)                    cg2d_init_res =    8.01814147539978E-01
(PID.TID 0000.0001)                       cg2d_iters =    25
(PID.TID 0000.0001)                         cg2d_res =    5.30818651533645E-14
(PID.TID 0000.0001) // =======================================================
(PID.TID 0000.0001) // Begin MONITOR dynamic field statistics
(PID.TID 0000.0001) // =======================================================
(PID.TID 0000.0001) %MON time_tsnumber                =                    41
(PID.TID 0000.0001) %MON time_secondsf                =   1.7712000000000E+06
(PID.TID 0000.0001) %MON dynstat_eta_max              =   7.9671656466365E-01
(PID.TID 0000.0001) %MON dynstat_eta_min              =  -1.1815449446051E+00
(PID.TID 0000.0001) %MON dynstat_eta_mean             =   3.2298654841113E-16
(PID.TID 0000.0001) %MON dynstat_eta_sd               =   3.9876746526987E-01
(PID.TID 0000.0001) %MON dynstat_eta_del2             =   2.4178532203276E-02
(PID.TID 0000.0001) %MON dynstat_uvel_max             =   1.4664479316917E-01
(PID.TID 0000.0001) %MON dynstat_uvel_min             =  -1.7956537301870E-01
(PID.TID 0000.0001) %MON dynstat_uvel_mean            =  -1.7470683097594E-03
(PID.TID 0000.0001) %MON dynstat_uvel_sd              =   1.3772297857861E-02
(PID.TID 0000.0001) %MON dynstat_uvel_del2            =   3.2824520883129E-03
(PID.TID 0000.0001) %MON dynstat_vvel_max             =   1.4270645378239E-01
(PID.TID 0000.0001) %MON dynstat_vvel_min             =  -1.3981691772566E-01
(PID.TID 0000.0001) %MON dynstat_vvel_mean            =   4.1570925269833E-03
(PID.TID 0000.0001) %MON dynstat_vvel_sd              =   1.3505137209538E-02
(PID.TID 0000.0001) %MON dynstat_vvel_del2            =   3.3042647476199E-03
(PID.TID 0000.0001) %MON dynstat_wvel_max             =   1.6163900586370E-04
(PID.TID 0000.0001) %MON dynstat_wvel_min             =  -1.6397959276753E-04
(PID.TID 0000.0001) %MON dynstat_wvel_mean            =  -4.5026828211200E-22
(PID.TID 0000.0001) %MON dynstat_wvel_sd              =   2.1342900453301E-05
(PID.TID 0000.0001) %MON dynstat_wvel_del2            =   7.6058925099672E-06
(PID.TID 0000.0001) %MON dynstat_theta_max            =   2.9571712472777E+01
(PID.TID 0000.0001) %MON dynstat_theta_min            =  -2.0252977097586E+00
(PID.TID 0000.0001) %MON dynstat_theta_mean           =   3.5945714792509E+00
(PID.TID 0000.0001) %MON dynstat_theta_sd             =   4.3553573724221E+00
(PID.TID 0000.0001) %MON dynstat_theta_del2           =   1.3978242241595E-01
(PID.TID 0000.0001) %MON dynstat_salt_max             =   3.7402947348290E+01
(PID.TID 0000.0001) %MON dynstat_salt_min             =   2.9826522052280E+01
(PID.TID 0000.0001) %MON dynstat_salt_mean            =   3.4716272871112E+01
(PID.TID 0000.0001) %MON dynstat_salt_sd              =   2.9515635148660E-01
(PID.TID 0000.0001) %MON dynstat_salt_del2            =   2.6136130011442E-02
(PID.TID 0000.0001) %MON dynstat_sst_max              =   2.9571712472777E+01
(PID.TID 0000.0001) %MON dynstat_sst_min              =  -1.9501500454695E+00
(PID.TID 0000.0001) %MON dynstat_sst_mean             =   1.8542196562216E+01
(PID.TID 0000.0001) %MON dynstat_sst_sd               =   8.9724560153346E+00
(PID.TID 0000.0001) %MON dynstat_sst_del2             =   2.7465304156742E-01
(PID.TID 0000.0001) %MON dynstat_sss_max              =   3.7402946657607E+01
(PID.TID 0000.0001) %MON dynstat_sss_min              =   2.9826522052280E+01
(PID.TID 0000.0001) %MON dynstat_sss_mean             =   3.4845529770632E+01
(PID.TID 0000.0001) %MON dynstat_sss_sd               =   9.6623930596445E-01
(PID.TID 0000.0001) %MON dynstat_sss_del2             =   8.1837636709747E-02
(PID.TID 0000.0001) %MON extforcing_qnet_max          =   4.2501818339030E+02
(PID.TID 0000.0001) %MON extforcing_qnet_min          =  -1.7882195027669E+02
(PID.TID 0000.0001) %MON extforcing_qnet_mean         =  -1.6087980164027E+01
(PID.TID 0000.0001) %MON extforcing_qnet_sd           =   1.0451573706380E+02
(PID.TID 0000.0001) %MON extforcing_qnet_del2         =   9.4163396173175E+00
(PID.TID 0000.0001) %MON extforcing_qsw_max           =   0.0000000000000E+00
(PID.TID 0000.0001) %MON extforcing_qsw_min           =   0.0000000000000E+00
(PID.TID 0000.0001) %MON extforcing_qsw_mean          =   0.0000000000000E+00
(PID.TID 0000.0001) %MON extforcing_qsw_sd            =   0.0000000000000E+00
(PID.TID 0000.0001) %MON extforcing_qsw_del2          =   0.0000000000000E+00
(PID.TID 0000.0001) %MON extforcing_empmr_max         =   0.0000000000000E+00
(PID.TID 0000.0001) %MON extforcing_empmr_min         =   0.0000000000000E+00
(PID.TID 0000.0001) %MON extforcing_empmr_mean        =   0.0000000000000E+00
(PID.TID 0000.0001) %MON extforcing_empmr_sd          =   0.0000000000000E+00
(PID.TID 0000.0001) %MON extforcing_empmr_del2        =   0.0000000000000E+00
(PID.TID 0000.0001) %MON extforcing_fu_max            =   2.7779850363731E-01
(PID.TID 0000.0001) %MON extforcing_fu_min            =  -1.7423425614834E-01
(PID.TID 0000.0001) %MON extforcing_fu_mean           =   1.6273236229911E-02
(PID.TID 0000.0001) %MON extforcing_fu_sd             =   9.0302370992227E-02
(PID.TID 0000.0001) %MON extforcing_fu_del2           =   7.4615340086554E-03
(PID.TID 0000.0001) %MON extforcing_fv_max            =   2.1707908560832E-01
(PID.TID 0000.0001) %MON extforcing_fv_min            =  -1.7318040132523E-01
(PID.TID 0000.0001) %MON extforcing_fv_mean           =  -5.5852022730810E-03
(PID.TID 0000.0001) %MON extforcing_fv_sd             =   4.6781725511238E-02
(PID.TID 0000.0001) %MON extforcing_fv_del2           =   4.5728991423764E-03
(PID.TID 0000.0001) %MON advcfl_uvel_max              =   1.9042141372262E-02
(PID.TID 0000.0001) %MON advcfl_vvel_max              =   1.3862787616783E-02
(PID.TID 0000.0001) %MON advcfl_wvel_max              =   1.7602620747258E-01
(PID.TID 0000.0001) %MON advcfl_W_hf_max              =   1.4330083070544E-01
(PID.TID 0000.0001) %MON pe_b_mean                    =   2.0347948777956E-04
(PID.TID 0000.0001) %MON ke_max                       =   1.6294784350844E-02
(PID.TID 0000.0001) %MON ke_mean                      =   1.7720012866184E-04
(PID.TID 0000.0001) %MON ke_vol                       =   1.3226782436723E+18
(PID.TID 0000.0001) %MON vort_r_min                   =  -3.9775858995600E-07
(PID.TID 0000.0001) %MON vort_r_max                   =   5.9206526802020E-07
(PID.TID 0000.0001) %MON vort_a_mean                  =  -2.5205769224834E-05
(PID.TID 0000.0001) %MON vort_a_sd                    =   7.3403033871564E-05
(PID.TID 0000.0001) %MON vort_p_mean                  =  -3.1758669345030E-05
(PID.TID 0000.0001) %MON vort_p_sd                    =   1.3126437981876E-04
(PID.TID 0000.0001) %MON surfExpan_theta_mean         =   2.7807431543175E-05
(PID.TID 0000.0001) %MON surfExpan_salt_mean          =   3.6878787549774E-06
(PID.TID 0000.0001) // =======================================================
(PID.TID 0000.0001) // End MONITOR dynamic field statistics
(PID.TID 0000.0001) // =======================================================
time,SST,SSS,fu,fv,Q,E-P,i0,i1,a,b =   1.7712E+06  6.8521E-01  3.4661E+01 -3.1747E-02 -4.9993E-02  2.6113E+02  0.0000E+00     1     2  1.8333E-01  8.1667E-01
time,fu0,fu1,fu =   1.7712E+06 -3.5633E-02 -1.4435E-02 -3.1747E-02  1.833333333333333E-01  8.166666666666667E-01
 cg2d: Sum(rhs),rhsMax =  -4.91058582685611E-13  7.16032442587445E+00
(PID.TID 0000.0001)                    cg2d_init_res =    7.97139535071542E-01
(PID.TID 0000.0001)                       cg2d_iters =    25
(PID.TID 0000.0001)                         cg2d_res =    4.92729790762259E-14
(PID.TID 0000.0001) // =======================================================
(PID.TID 0000.0001) // Begin MONITOR dynamic field statistics
(PID.TID 0000.0001) // =======================================================
(PID.TID 0000.0001) %MON time_tsnumber                =                    42
(PID.TID 0000.0001) %MON time_secondsf                =   1.8144000000000E+06
(PID.TID 0000.0001) %MON dynstat_eta_max              =   7.7347552938570E-01
(PID.TID 0000.0001) %MON dynstat_eta_min              =  -1.2133552955017E+00
(PID.TID 0000.0001) %MON dynstat_eta_mean             =  -1.9732956922642E-17
(PID.TID 0000.0001) %MON dynstat_eta_sd               =   4.0356647862156E-01
(PID.TID 0000.0001) %MON dynstat_eta_del2             =   2.4415903464110E-02
(PID.TID 0000.0001) %MON dynstat_uvel_max             =   1.4502892404755E-01
(PID.TID 0000.0001) %MON dynstat_uvel_min             =  -1.8148702258130E-01
(PID.TID 0000.0001) %MON dynstat_uvel_mean            =  -1.8005471751414E-03
(PID.TID 0000.0001) %MON dynstat_uvel_sd              =   1.3740294795522E-02
(PID.TID 0000.0001) %MON dynstat_uvel_del2            =   3.2531975495295E-03
(PID.TID 0000.0001) %MON dynstat_vvel_max             =   1.3552997657702E-01
(PID.TID 0000.0001) %MON dynstat_vvel_min             =  -1.3889376060579E-01
(PID.TID 0000.0001) %MON dynstat_vvel_mean            =   3.9778937457219E-03
(PID.TID 0000.0001) %MON dynstat_vvel_sd              =   1.3333567995678E-02
(PID.TID 0000.0001) %MON dynstat_vvel_del2            =   3.2724388960772E-03
(PID.TID 0000.0001) %MON dynstat_wvel_max             =   1.5627353412318E-04
(PID.TID 0000.0001) %MON dynstat_wvel_min             =  -1.8517383427213E-04
(PID.TID 0000.0001) %MON dynstat_wvel_mean            =  -5.4990555833810E-22
(PID.TID 0000.0001) %MON dynstat_wvel_sd              =   2.1046130282603E-05
(PID.TID 0000.0001) %MON dynstat_wvel_del2            =   7.5771053436683E-06
(PID.TID 0000.0001) %MON dynstat_theta_max            =   2.9563410870226E+01
(PID.TID 0000.0001) %MON dynstat_theta_min            =  -2.0184437735835E+00
(PID.TID 0000.0001) %MON dynstat_theta_mean           =   3.5942841303201E+00
(PID.TID 0000.0001) %MON dynstat_theta_sd             =   4.3549485909462E+00
(PID.TID 0000.0001) %MON dynstat_theta_del2           =   1.3974761156979E-01
(PID.TID 0000.0001) %MON dynstat_salt_max             =   3.7402701482076E+01
(PID.TID 0000.0001) %MON dynstat_salt_min             =   2.9829092776424E+01
(PID.TID 0000.0001) %MON dynstat_salt_mean            =   3.4716230660641E+01
(PID.TID 0000.0001) %MON dynstat_salt_sd              =   2.9510687478000E-01
(PID.TID 0000.0001) %MON dynstat_salt_del2            =   2.6116242379295E-02
(PID.TID 0000.0001) %MON dynstat_sst_max              =   2.9563410870226E+01
(PID.TID 0000.0001) %MON dynstat_sst_min              =  -1.9489053730439E+00
(PID.TID 0000.0001) %MON dynstat_sst_mean             =   1.8544448784765E+01
(PID.TID 0000.0001) %MON dynstat_sst_sd               =   8.9708280192960E+00
(PID.TID 0000.0001) %MON dynstat_sst_del2             =   2.7479722248784E-01
(PID.TID 0000.0001) %MON dynstat_sss_max              =   3.7402700645546E+01
(PID.TID 0000.0001) %MON dynstat_sss_min              =   2.9829092776424E+01
(PID.TID 0000.0001) %MON dynstat_sss_mean             =   3.4844559877171E+01
(PID.TID 0000.0001) %MON dynstat_sss_sd               =   9.6649608516734E-01
(PID.TID 0000.0001) %MON dynstat_sss_del2             =   8.1799310852560E-02
(PID.TID 0000.0001) %MON extforcing_qnet_max          =   4.2335864003499E+02
(PID.TID 0000.0001) %MON extforcing_qnet_min          =  -1.7870219065348E+02
(PID.TID 0000.0001) %MON extforcing_qnet_mean         =  -1.6045525580325E+01
(PID.TID 0000.0001) %MON extforcing_qnet_sd           =   1.0398521203483E+02
(PID.TID 0000.0001) %MON extforcing_qnet_del2         =   9.3920069368459E+00
(PID.TID 0000.0001) %MON extforcing_qsw_max           =   0.0000000000000E+00
(PID.TID 0000.0001) %MON extforcing_qsw_min           =   0.0000000000000E+00
(PID.TID 0000.0001) %MON extforcing_qsw_mean          =   0.0000000000000E+00
(PID.TID 0000.0001) %MON extforcing_qsw_sd            =   0.0000000000000E+00
(PID.TID 0000.0001) %MON extforcing_qsw_del2          =   0.0000000000000E+00
(PID.TID 0000.0001) %MON extforcing_empmr_max         =   0.0000000000000E+00
(PID.TID 0000.0001) %MON extforcing_empmr_min         =   0.0000000000000E+00
(PID.TID 0000.0001) %MON extforcing_empmr_mean        =   0.0000000000000E+00
(PID.TID 0000.0001) %MON extforcing_empmr_sd          =   0.0000000000000E+00
(PID.TID 0000.0001) %MON extforcing_empmr_del2        =   0.0000000000000E+00
(PID.TID 0000.0001) %MON extforcing_fu_max            =   2.7770046591759E-01
(PID.TID 0000.0001) %MON extforcing_fu_min            =  -1.7506421804428E-01
(PID.TID 0000.0001) %MON extforcing_fu_mean           =   1.6300386337645E-02
(PID.TID 0000.0001) %MON extforcing_fu_sd             =   9.0250123038480E-02
(PID.TID 0000.0001) %MON extforcing_fu_del2           =   7.4448850720768E-03
(PID.TID 0000.0001) %MON extforcing_fv_max            =   2.1547486210863E-01
(PID.TID 0000.0001) %MON extforcing_fv_min            =  -1.7268475145102E-01
(PID.TID 0000.0001) %MON extforcing_fv_mean           =  -5.6178327264386E-03
(PID.TID 0000.0001) %MON extforcing_fv_sd             =   4.6653650879199E-02
(PID.TID 0000.0001) %MON extforcing_fv_del2           =   4.5505035892198E-03
(PID.TID 0000.0001) %MON advcfl_uvel_max              =   1.8169727450504E-02
(PID.TID 0000.0001) %MON advcfl_vvel_max              =   1.3492415048799E-02
(PID.TID 0000.0001) %MON advcfl_wvel_max              =   1.6386699604787E-01
(PID.TID 0000.0001) %MON advcfl_W_hf_max              =   1.3503007445541E-01
(PID.TID 0000.0001) %MON pe_b_mean                    =   2.0840655315072E-04
(PID.TID 0000.0001) %MON ke_max                       =   1.6435121339542E-02
(PID.TID 0000.0001) %MON ke_mean                      =   1.7416459287687E-04
(PID.TID 0000.0001) %MON ke_vol                       =   1.3226782436723E+18
(PID.TID 0000.0001) %MON vort_r_min                   =  -4.2031760506085E-07
(PID.TID 0000.0001) %MON vort_r_max                   =   6.1487162959441E-07
(PID.TID 0000.0001) %MON vort_a_mean                  =  -2.5205769193145E-05
(PID.TID 0000.0001) %MON vort_a_sd                    =   7.3403031692241E-05
(PID.TID 0000.0001) %MON vort_p_mean                  =  -3.1758669305103E-05
(PID.TID 0000.0001) %MON vort_p_sd                    =   1.3126434700520E-04
(PID.TID 0000.0001) %MON surfExpan_theta_mean         =   2.9525765946530E-05
(PID.TID 0000.0001) %MON surfExpan_salt_mean          =   3.6971668255362E-06
(PID.TID 0000.0001) // =======================================================
(PID.TID 0000.0001) // End MONITOR dynamic field statistics
(PID.TID 0000.0001) // =======================================================
time,SST,SSS,fu,fv,Q,E-P,i0,i1,a,b =   1.8144E+06  6.6037E-01  3.4656E+01 -3.1393E-02 -4.9332E-02  2.6071E+02  0.0000E+00     1     2  2.0000E-01  8.0000E-01
time,fu0,fu1,fu =   1.8144E+06 -3.5633E-02 -1.4435E-02 -3.1393E-02  2.000000000000000E-01  8.000000000000000E-01
 cg2d: Sum(rhs),rhsMax =  -2.24653629032900E-13  7.19604410604347E+00
(PID.TID 0000.0001)                    cg2d_init_res =    7.93341955327712E-01
(PID.TID 0000.0001)                       cg2d_iters =    25
(PID.TID 0000.0001)                         cg2d_res =    4.50873191963864E-14
(PID.TID 0000.0001) // =======================================================
(PID.TID 0000.0001) // Begin MONITOR dynamic field statistics
(PID.TID 0000.0001) // =======================================================
(PID.TID 0000.0001) %MON time_tsnumber                =                    43
(PID.TID 0000.0001) %MON time_secondsf                =   1.8576000000000E+06
(PID.TID 0000.0001) %MON dynstat_eta_max              =   8.0121532935814E-01
(PID.TID 0000.0001) %MON dynstat_eta_min              =  -1.2367420071035E+00
(PID.TID 0000.0001) %MON dynstat_eta_mean             =   3.3572205305822E-18
(PID.TID 0000.0001) %MON dynstat_eta_sd               =   4.0806371125089E-01
(PID.TID 0000.0001) %MON dynstat_eta_del2             =   2.4603745822683E-02
(PID.TID 0000.0001) %MON dynstat_uvel_max             =   1.3904390819246E-01
(PID.TID 0000.0001) %MON dynstat_uvel_min             =  -1.8314792879798E-01
(PID.TID 0000.0001) %MON dynstat_uvel_mean            =  -1.8627322720575E-03
(PID.TID 0000.0001) %MON dynstat_uvel_sd              =   1.3756059613772E-02
(PID.TID 0000.0001) %MON dynstat_uvel_del2            =   3.2286466570361E-03
(PID.TID 0000.0001) %MON dynstat_vvel_max             =   1.3509630553527E-01
(PID.TID 0000.0001) %MON dynstat_vvel_min             =  -1.3727409685061E-01
(PID.TID 0000.0001) %MON dynstat_vvel_mean            =   3.7585066131416E-03
(PID.TID 0000.0001) %MON dynstat_vvel_sd              =   1.3186421539827E-02
(PID.TID 0000.0001) %MON dynstat_vvel_del2            =   3.2514845948149E-03
(PID.TID 0000.0001) %MON dynstat_wvel_max             =   1.5147834514554E-04
(PID.TID 0000.0001) %MON dynstat_wvel_min             =  -2.0614038506707E-04
(PID.TID 0000.0001) %MON dynstat_wvel_mean            =  -7.2136622467897E-24
(PID.TID 0000.0001) %MON dynstat_wvel_sd              =   2.0888050173585E-05
(PID.TID 0000.0001) %MON dynstat_wvel_del2            =   7.6017941864675E-06
(PID.TID 0000.0001) %MON dynstat_theta_max            =   2.9582378186302E+01
(PID.TID 0000.0001) %MON dynstat_theta_min            =  -2.0112097197937E+00
(PID.TID 0000.0001) %MON dynstat_theta_mean           =   3.5939809365099E+00
(PID.TID 0000.0001) %MON dynstat_theta_sd             =   4.3543932315683E+00
(PID.TID 0000.0001) %MON dynstat_theta_del2           =   1.3970907187732E-01
(PID.TID 0000.0001) %MON dynstat_salt_max             =   3.7402579505159E+01
(PID.TID 0000.0001) %MON dynstat_salt_min             =   2.9831477575411E+01
(PID.TID 0000.0001) %MON dynstat_salt_mean            =   3.4716189145138E+01
(PID.TID 0000.0001) %MON dynstat_salt_sd              =   2.9505915454541E-01
(PID.TID 0000.0001) %MON dynstat_salt_del2            =   2.6099437806132E-02
(PID.TID 0000.0001) %MON dynstat_sst_max              =   2.9582378186302E+01
(PID.TID 0000.0001) %MON dynstat_sst_min              =  -1.9475859076750E+00
(PID.TID 0000.0001) %MON dynstat_sst_mean             =   1.8546732858980E+01
(PID.TID 0000.0001) %MON dynstat_sst_sd               =   8.9685008124080E+00
(PID.TID 0000.0001) %MON dynstat_sst_del2             =   2.7513314523399E-01
(PID.TID 0000.0001) %MON dynstat_sss_max              =   3.7402578531525E+01
(PID.TID 0000.0001) %MON dynstat_sss_min              =   2.9831477575411E+01
(PID.TID 0000.0001) %MON dynstat_sss_mean             =   3.4843697382677E+01
(PID.TID 0000.0001) %MON dynstat_sss_sd               =   9.6675794652041E-01
(PID.TID 0000.0001) %MON dynstat_sss_del2             =   8.1823111819393E-02
(PID.TID 0000.0001) %MON extforcing_qnet_max          =   4.2169909667969E+02
(PID.TID 0000.0001) %MON extforcing_qnet_min          =  -1.7858243103027E+02
(PID.TID 0000.0001) %MON extforcing_qnet_mean         =  -1.6003070996624E+01
(PID.TID 0000.0001) %MON extforcing_qnet_sd           =   1.0345568885738E+02
(PID.TID 0000.0001) %MON extforcing_qnet_del2         =   9.3678611333195E+00
(PID.TID 0000.0001) %MON extforcing_qsw_max           =   0.0000000000000E+00
(PID.TID 0000.0001) %MON extforcing_qsw_min           =   0.0000000000000E+00
(PID.TID 0000.0001) %MON extforcing_qsw_mean          =   0.0000000000000E+00
(PID.TID 0000.0001) %MON extforcing_qsw_sd            =   0.0000000000000E+00
(PID.TID 0000.0001) %MON extforcing_qsw_del2          =   0.0000000000000E+00
(PID.TID 0000.0001) %MON extforcing_empmr_max         =   0.0000000000000E+00
(PID.TID 0000.0001) %MON extforcing_empmr_min         =   0.0000000000000E+00
(PID.TID 0000.0001) %MON extforcing_empmr_mean        =   0.0000000000000E+00
(PID.TID 0000.0001) %MON extforcing_empmr_sd          =   0.0000000000000E+00
(PID.TID 0000.0001) %MON extforcing_empmr_del2        =   0.0000000000000E+00
(PID.TID 0000.0001) %MON extforcing_fu_max            =   2.7760242819786E-01
(PID.TID 0000.0001) %MON extforcing_fu_min            =  -1.7589417994022E-01
(PID.TID 0000.0001) %MON extforcing_fu_mean           =   1.6327536445380E-02
(PID.TID 0000.0001) %MON extforcing_fu_sd             =   9.0202228865328E-02
(PID.TID 0000.0001) %MON extforcing_fu_del2           =   7.4290360425839E-03
(PID.TID 0000.0001) %MON extforcing_fv_max            =   2.1387063860893E-01
(PID.TID 0000.0001) %MON extforcing_fv_min            =  -1.7218910157681E-01
(PID.TID 0000.0001) %MON extforcing_fv_mean           =  -5.6504631797962E-03
(PID.TID 0000.0001) %MON extforcing_fv_sd             =   4.6529078937274E-02
(PID.TID 0000.0001) %MON extforcing_fv_del2           =   4.5295511519381E-03
(PID.TID 0000.0001) %MON advcfl_uvel_max              =   1.8336010487431E-02
(PID.TID 0000.0001) %MON advcfl_vvel_max              =   1.3335077703125E-02
(PID.TID 0000.0001) %MON advcfl_wvel_max              =   1.4573770441586E-01
(PID.TID 0000.0001) %MON advcfl_W_hf_max              =   1.2235948835275E-01
(PID.TID 0000.0001) %MON pe_b_mean                    =   2.1307728297073E-04
(PID.TID 0000.0001) %MON ke_max                       =   1.6550890436826E-02
(PID.TID 0000.0001) %MON ke_mean                      =   1.7195111968732E-04
(PID.TID 0000.0001) %MON ke_vol                       =   1.3226782436723E+18
(PID.TID 0000.0001) %MON vort_r_min                   =  -4.4142357483253E-07
(PID.TID 0000.0001) %MON vort_r_max                   =   6.2294673133251E-07
(PID.TID 0000.0001) %MON vort_a_mean                  =  -2.5205769168384E-05
(PID.TID 0000.0001) %MON vort_a_sd                    =   7.3403026164650E-05
(PID.TID 0000.0001) %MON vort_p_mean                  =  -3.1758669273905E-05
(PID.TID 0000.0001) %MON vort_p_sd                    =   1.3126431086467E-04
(PID.TID 0000.0001) %MON surfExpan_theta_mean         =   3.0714648887090E-05
(PID.TID 0000.0001) %MON surfExpan_salt_mean          =   3.6003529049683E-06
(PID.TID 0000.0001) // =======================================================
(PID.TID 0000.0001) // End MONITOR dynamic field statistics
(PID.TID 0000.0001) // =======================================================
time,SST,SSS,fu,fv,Q,E-P,i0,i1,a,b =   1.8576E+06  6.3553E-01  3.4651E+01 -3.1040E-02 -4.8672E-02  2.6029E+02  0.0000E+00     1     2  2.1667E-01  7.8333E-01
time,fu0,fu1,fu =   1.8576E+06 -3.5633E-02 -1.4435E-02 -3.1040E-02  2.166666666666667E-01  7.833333333333333E-01
 cg2d: Sum(rhs),rhsMax =  -3.99937027939501E-13  7.21623308450012E+00
(PID.TID 0000.0001)                    cg2d_init_res =    7.91201921644561E-01
(PID.TID 0000.0001)                       cg2d_iters =    25
(PID.TID 0000.0001)                         cg2d_res =    4.18728838371511E-14
(PID.TID 0000.0001) // =======================================================
(PID.TID 0000.0001) // Begin MONITOR dynamic field statistics
(PID.TID 0000.0001) // =======================================================
(PID.TID 0000.0001) %MON time_tsnumber                =                    44
(PID.TID 0000.0001) %MON time_secondsf                =   1.9008000000000E+06
(PID.TID 0000.0001) %MON dynstat_eta_max              =   8.4624502841067E-01
(PID.TID 0000.0001) %MON dynstat_eta_min              =  -1.2517012567136E+00
(PID.TID 0000.0001) %MON dynstat_eta_mean             =  -7.9770248413171E-17
(PID.TID 0000.0001) %MON dynstat_eta_sd               =   4.1223154430690E-01
(PID.TID 0000.0001) %MON dynstat_eta_del2             =   2.4738988645101E-02
(PID.TID 0000.0001) %MON dynstat_uvel_max             =   1.2910539485149E-01
(PID.TID 0000.0001) %MON dynstat_uvel_min             =  -1.8454888926686E-01
(PID.TID 0000.0001) %MON dynstat_uvel_mean            =  -1.9272580508175E-03
(PID.TID 0000.0001) %MON dynstat_uvel_sd              =   1.3811301208429E-02
(PID.TID 0000.0001) %MON dynstat_uvel_del2            =   3.2128671033617E-03
(PID.TID 0000.0001) %MON dynstat_vvel_max             =   1.3447523411924E-01
(PID.TID 0000.0001) %MON dynstat_vvel_min             =  -1.3497454577194E-01
(PID.TID 0000.0001) %MON dynstat_vvel_mean            =   3.5032473681758E-03
(PID.TID 0000.0001) %MON dynstat_vvel_sd              =   1.3071266073774E-02
(PID.TID 0000.0001) %MON dynstat_vvel_del2            =   3.2401320623772E-03
(PID.TID 0000.0001) %MON dynstat_wvel_max             =   1.5443514269128E-04
(PID.TID 0000.0001) %MON dynstat_wvel_min             =  -2.2627474257714E-04
(PID.TID 0000.0001) %MON dynstat_wvel_mean            =  -6.1964097169165E-23
(PID.TID 0000.0001) %MON dynstat_wvel_sd              =   2.0857329833490E-05
(PID.TID 0000.0001) %MON dynstat_wvel_del2            =   7.6672681901919E-06
(PID.TID 0000.0001) %MON dynstat_theta_max            =   2.9597458489149E+01
(PID.TID 0000.0001) %MON dynstat_theta_min            =  -2.0112267281876E+00
(PID.TID 0000.0001) %MON dynstat_theta_mean           =   3.5936678638467E+00
(PID.TID 0000.0001) %MON dynstat_theta_sd             =   4.3537094614605E+00
(PID.TID 0000.0001) %MON dynstat_theta_del2           =   1.3965412513311E-01
(PID.TID 0000.0001) %MON dynstat_salt_max             =   3.7402564096357E+01
(PID.TID 0000.0001) %MON dynstat_salt_min             =   2.9833680284663E+01
(PID.TID 0000.0001) %MON dynstat_salt_mean            =   3.4716149467039E+01
(PID.TID 0000.0001) %MON dynstat_salt_sd              =   2.9501472604685E-01
(PID.TID 0000.0001) %MON dynstat_salt_del2            =   2.6071722920096E-02
(PID.TID 0000.0001) %MON dynstat_sst_max              =   2.9597458489149E+01
(PID.TID 0000.0001) %MON dynstat_sst_min              =  -1.9462951942784E+00
(PID.TID 0000.0001) %MON dynstat_sst_mean             =   1.8548905061768E+01
(PID.TID 0000.0001) %MON dynstat_sst_sd               =   8.9653104688718E+00
(PID.TID 0000.0001) %MON dynstat_sst_del2             =   2.7530960491727E-01
(PID.TID 0000.0001) %MON dynstat_sss_max              =   3.7402562998191E+01
(PID.TID 0000.0001) %MON dynstat_sss_min              =   2.9833680284663E+01
(PID.TID 0000.0001) %MON dynstat_sss_mean             =   3.4842878367511E+01
(PID.TID 0000.0001) %MON dynstat_sss_sd               =   9.6695514870415E-01
(PID.TID 0000.0001) %MON dynstat_sss_del2             =   8.1750246917967E-02
(PID.TID 0000.0001) %MON extforcing_qnet_max          =   4.2003955332438E+02
(PID.TID 0000.0001) %MON extforcing_qnet_min          =  -1.7846267140706E+02
(PID.TID 0000.0001) %MON extforcing_qnet_mean         =  -1.5960616412922E+01
(PID.TID 0000.0001) %MON extforcing_qnet_sd           =   1.0292718299394E+02
(PID.TID 0000.0001) %MON extforcing_qnet_del2         =   9.3438824482456E+00
(PID.TID 0000.0001) %MON extforcing_qsw_max           =   0.0000000000000E+00
(PID.TID 0000.0001) %MON extforcing_qsw_min           =   0.0000000000000E+00
(PID.TID 0000.0001) %MON extforcing_qsw_mean          =   0.0000000000000E+00
(PID.TID 0000.0001) %MON extforcing_qsw_sd            =   0.0000000000000E+00
(PID.TID 0000.0001) %MON extforcing_qsw_del2          =   0.0000000000000E+00
(PID.TID 0000.0001) %MON extforcing_empmr_max         =   0.0000000000000E+00
(PID.TID 0000.0001) %MON extforcing_empmr_min         =   0.0000000000000E+00
(PID.TID 0000.0001) %MON extforcing_empmr_mean        =   0.0000000000000E+00
(PID.TID 0000.0001) %MON extforcing_empmr_sd          =   0.0000000000000E+00
(PID.TID 0000.0001) %MON extforcing_empmr_del2        =   0.0000000000000E+00
(PID.TID 0000.0001) %MON extforcing_fu_max            =   2.7750439047813E-01
(PID.TID 0000.0001) %MON extforcing_fu_min            =  -1.7672414183617E-01
(PID.TID 0000.0001) %MON extforcing_fu_mean           =   1.6354686553114E-02
(PID.TID 0000.0001) %MON extforcing_fu_sd             =   9.0158695411226E-02
(PID.TID 0000.0001) %MON extforcing_fu_del2           =   7.4145870940191E-03
(PID.TID 0000.0001) %MON extforcing_fv_max            =   2.1226641510924E-01
(PID.TID 0000.0001) %MON extforcing_fv_min            =  -1.7169345170259E-01
(PID.TID 0000.0001) %MON extforcing_fv_mean           =  -5.6830936331538E-03
(PID.TID 0000.0001) %MON extforcing_fv_sd             =   4.6408037892024E-02
(PID.TID 0000.0001) %MON extforcing_fv_del2           =   4.5098632155974E-03
(PID.TID 0000.0001) %MON advcfl_uvel_max              =   1.8476268834979E-02
(PID.TID 0000.0001) %MON advcfl_vvel_max              =   1.3111694756015E-02
(PID.TID 0000.0001) %MON advcfl_wvel_max              =   1.3188085953422E-01
(PID.TID 0000.0001) %MON advcfl_W_hf_max              =   1.0713820455336E-01
(PID.TID 0000.0001) %MON pe_b_mean                    =   2.1745211834071E-04
(PID.TID 0000.0001) %MON ke_max                       =   1.6643168481064E-02
(PID.TID 0000.0001) %MON ke_mean                      =   1.7056442950184E-04
(PID.TID 0000.0001) %MON ke_vol                       =   1.3226782436723E+18
(PID.TID 0000.0001) %MON vort_r_min                   =  -4.6068608644970E-07
(PID.TID 0000.0001) %MON vort_r_max                   =   6.1646920786169E-07
(PID.TID 0000.0001) %MON vort_a_mean                  =  -2.5205769150975E-05
(PID.TID 0000.0001) %MON vort_a_sd                    =   7.3403018569238E-05
(PID.TID 0000.0001) %MON vort_p_mean                  =  -3.1758669251970E-05
(PID.TID 0000.0001) %MON vort_p_sd                    =   1.3126427474977E-04
(PID.TID 0000.0001) %MON surfExpan_theta_mean         =   3.1397949612913E-05
(PID.TID 0000.0001) %MON surfExpan_salt_mean          =   3.4083976247529E-06
(PID.TID 0000.0001) // =======================================================
(PID.TID 0000.0001) // End MONITOR dynamic field statistics
(PID.TID 0000.0001) // =======================================================
time,SST,SSS,fu,fv,Q,E-P,i0,i1,a,b =   1.9008E+06  6.1069E-01  3.4646E+01 -3.0687E-02 -4.8012E-02  2.5987E+02  0.0000E+00     1     2  2.3333E-01  7.6667E-01
time,fu0,fu1,fu =   1.9008E+06 -3.5633E-02 -1.4435E-02 -3.0687E-02  2.333333333333333E-01  7.666666666666666E-01
 cg2d: Sum(rhs),rhsMax =  -4.77395900588817E-14  7.36407412157297E+00
(PID.TID 0000.0001)                    cg2d_init_res =    7.72843447707146E-01
(PID.TID 0000.0001)                       cg2d_iters =    25
(PID.TID 0000.0001)                         cg2d_res =    3.92505176821716E-14
(PID.TID 0000.0001) // =======================================================
(PID.TID 0000.0001) // Begin MONITOR dynamic field statistics
(PID.TID 0000.0001) // =======================================================
(PID.TID 0000.0001) %MON time_tsnumber                =                    45
(PID.TID 0000.0001) %MON time_secondsf                =   1.9440000000000E+06
(PID.TID 0000.0001) %MON dynstat_eta_max              =   8.8536199720491E-01
(PID.TID 0000.0001) %MON dynstat_eta_min              =  -1.2594554553427E+00
(PID.TID 0000.0001) %MON dynstat_eta_mean             =  -2.3277672382751E-17
(PID.TID 0000.0001) %MON dynstat_eta_sd               =   4.1605938097598E-01
(PID.TID 0000.0001) %MON dynstat_eta_del2             =   2.4866838667888E-02
(PID.TID 0000.0001) %MON dynstat_uvel_max             =   1.1575460183075E-01
(PID.TID 0000.0001) %MON dynstat_uvel_min             =  -1.8569045583078E-01
(PID.TID 0000.0001) %MON dynstat_uvel_mean            =  -1.9884680041244E-03
(PID.TID 0000.0001) %MON dynstat_uvel_sd              =   1.3897239246446E-02
(PID.TID 0000.0001) %MON dynstat_uvel_del2            =   3.2066705383706E-03
(PID.TID 0000.0001) %MON dynstat_vvel_max             =   1.3364684939506E-01
(PID.TID 0000.0001) %MON dynstat_vvel_min             =  -1.3201870242194E-01
(PID.TID 0000.0001) %MON dynstat_vvel_mean            =   3.2170014596605E-03
(PID.TID 0000.0001) %MON dynstat_vvel_sd              =   1.2994429325737E-02
(PID.TID 0000.0001) %MON dynstat_vvel_del2            =   3.2395369541685E-03
(PID.TID 0000.0001) %MON dynstat_wvel_max             =   1.5606281459850E-04
(PID.TID 0000.0001) %MON dynstat_wvel_min             =  -2.4507352026311E-04
(PID.TID 0000.0001) %MON dynstat_wvel_mean            =  -2.4356144986677E-22
(PID.TID 0000.0001) %MON dynstat_wvel_sd              =   2.0933922331612E-05
(PID.TID 0000.0001) %MON dynstat_wvel_del2            =   7.7560527081498E-06
(PID.TID 0000.0001) %MON dynstat_theta_max            =   2.9608663284254E+01
(PID.TID 0000.0001) %MON dynstat_theta_min            =  -2.0114531230660E+00
(PID.TID 0000.0001) %MON dynstat_theta_mean           =   3.5933504518512E+00
(PID.TID 0000.0001) %MON dynstat_theta_sd             =   4.3529174960434E+00
(PID.TID 0000.0001) %MON dynstat_theta_del2           =   1.3956645539900E-01
(PID.TID 0000.0001) %MON dynstat_salt_max             =   3.7402633560037E+01
(PID.TID 0000.0001) %MON dynstat_salt_min             =   2.9835708631242E+01
(PID.TID 0000.0001) %MON dynstat_salt_mean            =   3.4716112624293E+01
(PID.TID 0000.0001) %MON dynstat_salt_sd              =   2.9497419941019E-01
(PID.TID 0000.0001) %MON dynstat_salt_del2            =   2.6042536564170E-02
(PID.TID 0000.0001) %MON dynstat_sst_max              =   2.9608663284254E+01
(PID.TID 0000.0001) %MON dynstat_sst_min              =  -1.9451221002836E+00
(PID.TID 0000.0001) %MON dynstat_sst_mean             =   1.8551075128692E+01
(PID.TID 0000.0001) %MON dynstat_sst_sd               =   8.9614777411665E+00
(PID.TID 0000.0001) %MON dynstat_sst_del2             =   2.7540924254762E-01
(PID.TID 0000.0001) %MON dynstat_sss_max              =   3.7402632353092E+01
(PID.TID 0000.0001) %MON dynstat_sss_min              =   2.9835708631242E+01
(PID.TID 0000.0001) %MON dynstat_sss_mean             =   3.4842169782702E+01
(PID.TID 0000.0001) %MON dynstat_sss_sd               =   9.6710371800450E-01
(PID.TID 0000.0001) %MON dynstat_sss_del2             =   8.1690944855250E-02
(PID.TID 0000.0001) %MON extforcing_qnet_max          =   4.1838000996908E+02
(PID.TID 0000.0001) %MON extforcing_qnet_min          =  -1.7834291178385E+02
(PID.TID 0000.0001) %MON extforcing_qnet_mean         =  -1.5918161829221E+01
(PID.TID 0000.0001) %MON extforcing_qnet_sd           =   1.0239971019621E+02
(PID.TID 0000.0001) %MON extforcing_qnet_del2         =   9.3200538001827E+00
(PID.TID 0000.0001) %MON extforcing_qsw_max           =   0.0000000000000E+00
(PID.TID 0000.0001) %MON extforcing_qsw_min           =   0.0000000000000E+00
(PID.TID 0000.0001) %MON extforcing_qsw_mean          =   0.0000000000000E+00
(PID.TID 0000.0001) %MON extforcing_qsw_sd            =   0.0000000000000E+00
(PID.TID 0000.0001) %MON extforcing_qsw_del2          =   0.0000000000000E+00
(PID.TID 0000.0001) %MON extforcing_empmr_max         =   0.0000000000000E+00
(PID.TID 0000.0001) %MON extforcing_empmr_min         =   0.0000000000000E+00
(PID.TID 0000.0001) %MON extforcing_empmr_mean        =   0.0000000000000E+00
(PID.TID 0000.0001) %MON extforcing_empmr_sd          =   0.0000000000000E+00
(PID.TID 0000.0001) %MON extforcing_empmr_del2        =   0.0000000000000E+00
(PID.TID 0000.0001) %MON extforcing_fu_max            =   2.7740635275841E-01
(PID.TID 0000.0001) %MON extforcing_fu_min            =  -1.7755410373211E-01
(PID.TID 0000.0001) %MON extforcing_fu_mean           =   1.6381836660849E-02
(PID.TID 0000.0001) %MON extforcing_fu_sd             =   9.0119528995688E-02
(PID.TID 0000.0001) %MON extforcing_fu_del2           =   7.4010633866032E-03
(PID.TID 0000.0001) %MON extforcing_fv_max            =   2.1066219160954E-01
(PID.TID 0000.0001) %MON extforcing_fv_min            =  -1.7119780182838E-01
(PID.TID 0000.0001) %MON extforcing_fv_mean           =  -5.7157240865113E-03
(PID.TID 0000.0001) %MON extforcing_fv_sd             =   4.6290555441337E-02
(PID.TID 0000.0001) %MON extforcing_fv_del2           =   4.4909951148187E-03
(PID.TID 0000.0001) %MON advcfl_uvel_max              =   1.8590557741359E-02
(PID.TID 0000.0001) %MON advcfl_vvel_max              =   1.2982719699846E-02
(PID.TID 0000.0001) %MON advcfl_wvel_max              =   1.1321774170759E-01
(PID.TID 0000.0001) %MON advcfl_W_hf_max              =   1.1002837631789E-01
(PID.TID 0000.0001) %MON pe_b_mean                    =   2.2150923505825E-04
(PID.TID 0000.0001) %MON ke_max                       =   1.6712912964828E-02
(PID.TID 0000.0001) %MON ke_mean                      =   1.6999238937801E-04
(PID.TID 0000.0001) %MON ke_vol                       =   1.3226782436723E+18
(PID.TID 0000.0001) %MON vort_r_min                   =  -4.7782063906824E-07
(PID.TID 0000.0001) %MON vort_r_max                   =   5.9628501185032E-07
(PID.TID 0000.0001) %MON vort_a_mean                  =  -2.5205769141031E-05
(PID.TID 0000.0001) %MON vort_a_sd                    =   7.3403010096528E-05
(PID.TID 0000.0001) %MON vort_p_mean                  =  -3.1758669239442E-05
(PID.TID 0000.0001) %MON vort_p_sd                    =   1.3126424158887E-04
(PID.TID 0000.0001) %MON surfExpan_theta_mean         =   3.1617369467890E-05
(PID.TID 0000.0001) %MON surfExpan_salt_mean          =   3.1356269787127E-06
(PID.TID 0000.0001) // =======================================================
(PID.TID 0000.0001) // End MONITOR dynamic field statistics
(PID.TID 0000.0001) // =======================================================
time,SST,SSS,fu,fv,Q,E-P,i0,i1,a,b =   1.9440E+06  5.8585E-01  3.4641E+01 -3.0333E-02 -4.7351E-02  2.5945E+02  0.0000E+00     1     2  2.5000E-01  7.5000E-01
time,fu0,fu1,fu =   1.9440E+06 -3.5633E-02 -1.4435E-02 -3.0333E-02  2.500000000000000E-01  7.500000000000000E-01
 cg2d: Sum(rhs),rhsMax =  -2.45983788893511E-13  7.63411969891389E+00
(PID.TID 0000.0001)                    cg2d_init_res =    7.39407685391261E-01
(PID.TID 0000.0001)                       cg2d_iters =    25
(PID.TID 0000.0001)                         cg2d_res =    3.57737213248776E-14
(PID.TID 0000.0001) // =======================================================
(PID.TID 0000.0001) // Begin MONITOR dynamic field statistics
(PID.TID 0000.0001) // =======================================================
(PID.TID 0000.0001) %MON time_tsnumber                =                    46
(PID.TID 0000.0001) %MON time_secondsf                =   1.9872000000000E+06
(PID.TID 0000.0001) %MON dynstat_eta_max              =   9.1733061615434E-01
(PID.TID 0000.0001) %MON dynstat_eta_min              =  -1.2953682076035E+00
(PID.TID 0000.0001) %MON dynstat_eta_mean             =  -1.6675728279303E-16
(PID.TID 0000.0001) %MON dynstat_eta_sd               =   4.1954759558444E-01
(PID.TID 0000.0001) %MON dynstat_eta_del2             =   2.4941909626212E-02
(PID.TID 0000.0001) %MON dynstat_uvel_max             =   1.1617180957629E-01
(PID.TID 0000.0001) %MON dynstat_uvel_min             =  -1.8657275190093E-01
(PID.TID 0000.0001) %MON dynstat_uvel_mean            =  -2.0415227259789E-03
(PID.TID 0000.0001) %MON dynstat_uvel_sd              =   1.4005521288939E-02
(PID.TID 0000.0001) %MON dynstat_uvel_del2            =   3.2060268405749E-03
(PID.TID 0000.0001) %MON dynstat_vvel_max             =   1.3258967327481E-01
(PID.TID 0000.0001) %MON dynstat_vvel_min             =  -1.2843632830528E-01
(PID.TID 0000.0001) %MON dynstat_vvel_mean            =   2.9050533897250E-03
(PID.TID 0000.0001) %MON dynstat_vvel_sd              =   1.2960653851035E-02
(PID.TID 0000.0001) %MON dynstat_vvel_del2            =   3.2471228801454E-03
(PID.TID 0000.0001) %MON dynstat_wvel_max             =   1.5589240504673E-04
(PID.TID 0000.0001) %MON dynstat_wvel_min             =  -2.6209305179592E-04
(PID.TID 0000.0001) %MON dynstat_wvel_mean            =  -1.4996733604157E-22
(PID.TID 0000.0001) %MON dynstat_wvel_sd              =   2.1093135463535E-05
(PID.TID 0000.0001) %MON dynstat_wvel_del2            =   7.8655619619444E-06
(PID.TID 0000.0001) %MON dynstat_theta_max            =   2.9616084841888E+01
(PID.TID 0000.0001) %MON dynstat_theta_min            =  -2.0118983452167E+00
(PID.TID 0000.0001) %MON dynstat_theta_mean           =   3.5930336406072E+00
(PID.TID 0000.0001) %MON dynstat_theta_sd             =   4.3520386319046E+00
(PID.TID 0000.0001) %MON dynstat_theta_del2           =   1.3944988782396E-01
(PID.TID 0000.0001) %MON dynstat_salt_max             =   3.7402763026900E+01
(PID.TID 0000.0001) %MON dynstat_salt_min             =   2.9837573193445E+01
(PID.TID 0000.0001) %MON dynstat_salt_mean            =   3.4716079425362E+01
(PID.TID 0000.0001) %MON dynstat_salt_sd              =   2.9493782872353E-01
(PID.TID 0000.0001) %MON dynstat_salt_del2            =   2.6009129773383E-02
(PID.TID 0000.0001) %MON dynstat_sst_max              =   2.9616084841888E+01
(PID.TID 0000.0001) %MON dynstat_sst_min              =  -1.9441341881654E+00
(PID.TID 0000.0001) %MON dynstat_sst_mean             =   1.8553288750505E+01
(PID.TID 0000.0001) %MON dynstat_sst_sd               =   8.9569578533635E+00
(PID.TID 0000.0001) %MON dynstat_sst_del2             =   2.7550508819661E-01
(PID.TID 0000.0001) %MON dynstat_sss_max              =   3.7402761729344E+01
(PID.TID 0000.0001) %MON dynstat_sss_min              =   2.9837573193445E+01
(PID.TID 0000.0001) %MON dynstat_sss_mean             =   3.4841583227513E+01
(PID.TID 0000.0001) %MON dynstat_sss_sd               =   9.6720034698428E-01
(PID.TID 0000.0001) %MON dynstat_sss_del2             =   8.1637698540649E-02
(PID.TID 0000.0001) %MON extforcing_qnet_max          =   4.1672046661377E+02
(PID.TID 0000.0001) %MON extforcing_qnet_min          =  -1.7822315216064E+02
(PID.TID 0000.0001) %MON extforcing_qnet_mean         =  -1.5875707245519E+01
(PID.TID 0000.0001) %MON extforcing_qnet_sd           =   1.0187328651100E+02
(PID.TID 0000.0001) %MON extforcing_qnet_del2         =   9.2966885862128E+00
(PID.TID 0000.0001) %MON extforcing_qsw_max           =   0.0000000000000E+00
(PID.TID 0000.0001) %MON extforcing_qsw_min           =   0.0000000000000E+00
(PID.TID 0000.0001) %MON extforcing_qsw_mean          =   0.0000000000000E+00
(PID.TID 0000.0001) %MON extforcing_qsw_sd            =   0.0000000000000E+00
(PID.TID 0000.0001) %MON extforcing_qsw_del2          =   0.0000000000000E+00
(PID.TID 0000.0001) %MON extforcing_empmr_max         =   0.0000000000000E+00
(PID.TID 0000.0001) %MON extforcing_empmr_min         =   0.0000000000000E+00
(PID.TID 0000.0001) %MON extforcing_empmr_mean        =   0.0000000000000E+00
(PID.TID 0000.0001) %MON extforcing_empmr_sd          =   0.0000000000000E+00
(PID.TID 0000.0001) %MON extforcing_empmr_del2        =   0.0000000000000E+00
(PID.TID 0000.0001) %MON extforcing_fu_max            =   2.7730831503868E-01
(PID.TID 0000.0001) %MON extforcing_fu_min            =  -1.7838406562805E-01
(PID.TID 0000.0001) %MON extforcing_fu_mean           =   1.6408986768583E-02
(PID.TID 0000.0001) %MON extforcing_fu_sd             =   9.0084735314726E-02
(PID.TID 0000.0001) %MON extforcing_fu_del2           =   7.3884447881072E-03
(PID.TID 0000.0001) %MON extforcing_fv_max            =   2.0905796810985E-01
(PID.TID 0000.0001) %MON extforcing_fv_min            =  -1.7070215195417E-01
(PID.TID 0000.0001) %MON extforcing_fv_mean           =  -5.7483545398689E-03
(PID.TID 0000.0001) %MON extforcing_fv_sd             =   4.6176658746502E-02
(PID.TID 0000.0001) %MON extforcing_fv_del2           =   4.4738072212818E-03
(PID.TID 0000.0001) %MON advcfl_uvel_max              =   1.8678889561988E-02
(PID.TID 0000.0001) %MON advcfl_vvel_max              =   1.2880023517297E-02
(PID.TID 0000.0001) %MON advcfl_wvel_max              =   1.1550700904586E-01
(PID.TID 0000.0001) %MON advcfl_W_hf_max              =   1.1101532664234E-01
(PID.TID 0000.0001) %MON pe_b_mean                    =   2.2523904286837E-04
(PID.TID 0000.0001) %MON ke_max                       =   1.6760865583886E-02
(PID.TID 0000.0001) %MON ke_mean                      =   1.7021123875302E-04
(PID.TID 0000.0001) %MON ke_vol                       =   1.3226782436723E+18
(PID.TID 0000.0001) %MON vort_r_min                   =  -4.9264787328096E-07
(PID.TID 0000.0001) %MON vort_r_max                   =   5.6386108763138E-07
(PID.TID 0000.0001) %MON vort_a_mean                  =  -2.5205769138231E-05
(PID.TID 0000.0001) %MON vort_a_sd                    =   7.3403001816616E-05
(PID.TID 0000.0001) %MON vort_p_mean                  =  -3.1758669235913E-05
(PID.TID 0000.0001) %MON vort_p_sd                    =   1.3126421371862E-04
(PID.TID 0000.0001) %MON surfExpan_theta_mean         =   3.1425042505208E-05
(PID.TID 0000.0001) %MON surfExpan_salt_mean          =   2.7983020563865E-06
(PID.TID 0000.0001) // =======================================================
(PID.TID 0000.0001) // End MONITOR dynamic field statistics
(PID.TID 0000.0001) // =======================================================
time,SST,SSS,fu,fv,Q,E-P,i0,i1,a,b =   1.9872E+06  5.6102E-01  3.4636E+01 -2.9980E-02 -4.6691E-02  2.5903E+02  0.0000E+00     1     2  2.6667E-01  7.3333E-01
time,fu0,fu1,fu =   1.9872E+06 -3.5633E-02 -1.4435E-02 -2.9980E-02  2.666666666666667E-01  7.333333333333334E-01
 cg2d: Sum(rhs),rhsMax =  -5.03243280380872E-13  7.83757941427557E+00
(PID.TID 0000.0001)                    cg2d_init_res =    7.10564335288232E-01
(PID.TID 0000.0001)                       cg2d_iters =    25
(PID.TID 0000.0001)                         cg2d_res =    3.05264867572482E-14
(PID.TID 0000.0001) // =======================================================
(PID.TID 0000.0001) // Begin MONITOR dynamic field statistics
(PID.TID 0000.0001) // =======================================================
(PID.TID 0000.0001) %MON time_tsnumber                =                    47
(PID.TID 0000.0001) %MON time_secondsf                =   2.0304000000000E+06
(PID.TID 0000.0001) %MON dynstat_eta_max              =   9.4182099495502E-01
(PID.TID 0000.0001) %MON dynstat_eta_min              =  -1.3249794586424E+00
(PID.TID 0000.0001) %MON dynstat_eta_mean             =  -4.3159210192943E-17
(PID.TID 0000.0001) %MON dynstat_eta_sd               =   4.2270385824004E-01
(PID.TID 0000.0001) %MON dynstat_eta_del2             =   2.5006742992333E-02
(PID.TID 0000.0001) %MON dynstat_uvel_max             =   1.1867600811661E-01
(PID.TID 0000.0001) %MON dynstat_uvel_min             =  -1.8719545558023E-01
(PID.TID 0000.0001) %MON dynstat_uvel_mean            =  -2.0824714602904E-03
(PID.TID 0000.0001) %MON dynstat_uvel_sd              =   1.4128934511816E-02
(PID.TID 0000.0001) %MON dynstat_uvel_del2            =   3.2100242529253E-03
(PID.TID 0000.0001) %MON dynstat_vvel_max             =   1.3128219813562E-01
(PID.TID 0000.0001) %MON dynstat_vvel_min             =  -1.2426304321223E-01
(PID.TID 0000.0001) %MON dynstat_vvel_mean            =   2.5729389485411E-03
(PID.TID 0000.0001) %MON dynstat_vvel_sd              =   1.2972640075307E-02
(PID.TID 0000.0001) %MON dynstat_vvel_del2            =   3.2621015719297E-03
(PID.TID 0000.0001) %MON dynstat_wvel_max             =   1.5408769583526E-04
(PID.TID 0000.0001) %MON dynstat_wvel_min             =  -2.7784436425975E-04
(PID.TID 0000.0001) %MON dynstat_wvel_mean            =  -7.7970628803258E-22
(PID.TID 0000.0001) %MON dynstat_wvel_sd              =   2.1309294043828E-05
(PID.TID 0000.0001) %MON dynstat_wvel_del2            =   7.9816059465378E-06
(PID.TID 0000.0001) %MON dynstat_theta_max            =   2.9619888051494E+01
(PID.TID 0000.0001) %MON dynstat_theta_min            =  -2.0125544611298E+00
(PID.TID 0000.0001) %MON dynstat_theta_mean           =   3.5927217117599E+00
(PID.TID 0000.0001) %MON dynstat_theta_sd             =   4.3510970261515E+00
(PID.TID 0000.0001) %MON dynstat_theta_del2           =   1.3933829788828E-01
(PID.TID 0000.0001) %MON dynstat_salt_max             =   3.7402925740465E+01
(PID.TID 0000.0001) %MON dynstat_salt_min             =   2.9839286504397E+01
(PID.TID 0000.0001) %MON dynstat_salt_mean            =   3.4716050483146E+01
(PID.TID 0000.0001) %MON dynstat_salt_sd              =   2.9490803123802E-01
(PID.TID 0000.0001) %MON dynstat_salt_del2            =   2.5975928238102E-02
(PID.TID 0000.0001) %MON dynstat_sst_max              =   2.9619888051494E+01
(PID.TID 0000.0001) %MON dynstat_sst_min              =  -1.9433746428574E+00
(PID.TID 0000.0001) %MON dynstat_sst_mean             =   1.8555614162901E+01
(PID.TID 0000.0001) %MON dynstat_sst_sd               =   8.9518483231460E+00
(PID.TID 0000.0001) %MON dynstat_sst_del2             =   2.7544754719256E-01
(PID.TID 0000.0001) %MON dynstat_sss_max              =   3.7402924372035E+01
(PID.TID 0000.0001) %MON dynstat_sss_min              =   2.9839286504397E+01
(PID.TID 0000.0001) %MON dynstat_sss_mean             =   3.4841140630265E+01
(PID.TID 0000.0001) %MON dynstat_sss_sd               =   9.6726333492159E-01
(PID.TID 0000.0001) %MON dynstat_sss_del2             =   8.1578511271965E-02
(PID.TID 0000.0001) %MON extforcing_qnet_max          =   4.1506092325846E+02
(PID.TID 0000.0001) %MON extforcing_qnet_min          =  -1.7810339253743E+02
(PID.TID 0000.0001) %MON extforcing_qnet_mean         =  -1.5833252661817E+01
(PID.TID 0000.0001) %MON extforcing_qnet_sd           =   1.0134792828630E+02
(PID.TID 0000.0001) %MON extforcing_qnet_del2         =   9.2735900322905E+00
(PID.TID 0000.0001) %MON extforcing_qsw_max           =   0.0000000000000E+00
(PID.TID 0000.0001) %MON extforcing_qsw_min           =   0.0000000000000E+00
(PID.TID 0000.0001) %MON extforcing_qsw_mean          =   0.0000000000000E+00
(PID.TID 0000.0001) %MON extforcing_qsw_sd            =   0.0000000000000E+00
(PID.TID 0000.0001) %MON extforcing_qsw_del2          =   0.0000000000000E+00
(PID.TID 0000.0001) %MON extforcing_empmr_max         =   0.0000000000000E+00
(PID.TID 0000.0001) %MON extforcing_empmr_min         =   0.0000000000000E+00
(PID.TID 0000.0001) %MON extforcing_empmr_mean        =   0.0000000000000E+00
(PID.TID 0000.0001) %MON extforcing_empmr_sd          =   0.0000000000000E+00
(PID.TID 0000.0001) %MON extforcing_empmr_del2        =   0.0000000000000E+00
(PID.TID 0000.0001) %MON extforcing_fu_max            =   2.7721027731895E-01
(PID.TID 0000.0001) %MON extforcing_fu_min            =  -1.7921402752399E-01
(PID.TID 0000.0001) %MON extforcing_fu_mean           =   1.6436136876318E-02
(PID.TID 0000.0001) %MON extforcing_fu_sd             =   9.0054319436731E-02
(PID.TID 0000.0001) %MON extforcing_fu_del2           =   7.3773843907971E-03
(PID.TID 0000.0001) %MON extforcing_fv_max            =   2.0745374461015E-01
(PID.TID 0000.0001) %MON extforcing_fv_min            =  -1.7020650207996E-01
(PID.TID 0000.0001) %MON extforcing_fv_mean           =  -5.7809849932265E-03
(PID.TID 0000.0001) %MON extforcing_fv_sd             =   4.6066374404308E-02
(PID.TID 0000.0001) %MON extforcing_fv_del2           =   4.4584552049203E-03
(PID.TID 0000.0001) %MON advcfl_uvel_max              =   1.8741232069868E-02
(PID.TID 0000.0001) %MON advcfl_vvel_max              =   1.2753012792215E-02
(PID.TID 0000.0001) %MON advcfl_wvel_max              =   1.4824267131170E-01
(PID.TID 0000.0001) %MON advcfl_W_hf_max              =   1.1007526286074E-01
(PID.TID 0000.0001) %MON pe_b_mean                    =   2.2864074362266E-04
(PID.TID 0000.0001) %MON ke_max                       =   1.6787501316090E-02
(PID.TID 0000.0001) %MON ke_mean                      =   1.7118819464681E-04
(PID.TID 0000.0001) %MON ke_vol                       =   1.3226782436723E+18
(PID.TID 0000.0001) %MON vort_r_min                   =  -5.0508558256504E-07
(PID.TID 0000.0001) %MON vort_r_max                   =   5.2119189724647E-07
(PID.TID 0000.0001) %MON vort_a_mean                  =  -2.5205769141834E-05
(PID.TID 0000.0001) %MON vort_a_sd                    =   7.3402994654394E-05
(PID.TID 0000.0001) %MON vort_p_mean                  =  -3.1758669240453E-05
(PID.TID 0000.0001) %MON vort_p_sd                    =   1.3126419291924E-04
(PID.TID 0000.0001) %MON surfExpan_theta_mean         =   3.0880672473935E-05
(PID.TID 0000.0001) %MON surfExpan_salt_mean          =   2.4143736581918E-06
(PID.TID 0000.0001) // =======================================================
(PID.TID 0000.0001) // End MONITOR dynamic field statistics
(PID.TID 0000.0001) // =======================================================
time,SST,SSS,fu,fv,Q,E-P,i0,i1,a,b =   2.0304E+06  5.3618E-01  3.4631E+01 -2.9627E-02 -4.6031E-02  2.5861E+02  0.0000E+00     1     2  2.8333E-01  7.1667E-01
time,fu0,fu1,fu =   2.0304E+06 -3.5633E-02 -1.4435E-02 -2.9627E-02  2.833333333333333E-01  7.166666666666667E-01
 cg2d: Sum(rhs),rhsMax =  -1.46799239431061E-13  7.97661618523109E+00
(PID.TID 0000.0001)                    cg2d_init_res =    6.85848917277728E-01
(PID.TID 0000.0001)                       cg2d_iters =    24
(PID.TID 0000.0001)                         cg2d_res =    8.55269398207253E-14
(PID.TID 0000.0001) // =======================================================
(PID.TID 0000.0001) // Begin MONITOR dynamic field statistics
(PID.TID 0000.0001) // =======================================================
(PID.TID 0000.0001) %MON time_tsnumber                =                    48
(PID.TID 0000.0001) %MON time_secondsf                =   2.0736000000000E+06
(PID.TID 0000.0001) %MON dynstat_eta_max              =   9.5906859873163E-01
(PID.TID 0000.0001) %MON dynstat_eta_min              =  -1.3468714786711E+00
(PID.TID 0000.0001) %MON dynstat_eta_mean             =  -2.5847414209321E-16
(PID.TID 0000.0001) %MON dynstat_eta_sd               =   4.2554178289710E-01
(PID.TID 0000.0001) %MON dynstat_eta_del2             =   2.5038005453621E-02
(PID.TID 0000.0001) %MON dynstat_uvel_max             =   1.1992668948806E-01
(PID.TID 0000.0001) %MON dynstat_uvel_min             =  -1.8755795258509E-01
(PID.TID 0000.0001) %MON dynstat_uvel_mean            =  -2.1082732246872E-03
(PID.TID 0000.0001) %MON dynstat_uvel_sd              =   1.4261869687991E-02
(PID.TID 0000.0001) %MON dynstat_uvel_del2            =   3.2206777287652E-03
(PID.TID 0000.0001) %MON dynstat_vvel_max             =   1.3109120718270E-01
(PID.TID 0000.0001) %MON dynstat_vvel_min             =  -1.2192184049162E-01
(PID.TID 0000.0001) %MON dynstat_vvel_mean            =   2.2262976904178E-03
(PID.TID 0000.0001) %MON dynstat_vvel_sd              =   1.3030576930580E-02
(PID.TID 0000.0001) %MON dynstat_vvel_del2            =   3.2834621735336E-03
(PID.TID 0000.0001) %MON dynstat_wvel_max             =   1.5369939790493E-04
(PID.TID 0000.0001) %MON dynstat_wvel_min             =  -2.9140534506883E-04
(PID.TID 0000.0001) %MON dynstat_wvel_mean            =  -4.2867962022695E-22
(PID.TID 0000.0001) %MON dynstat_wvel_sd              =   2.1558116759990E-05
(PID.TID 0000.0001) %MON dynstat_wvel_del2            =   8.0869972544318E-06
(PID.TID 0000.0001) %MON dynstat_theta_max            =   2.9620302692674E+01
(PID.TID 0000.0001) %MON dynstat_theta_min            =  -2.0133979599589E+00
(PID.TID 0000.0001) %MON dynstat_theta_mean           =   3.5924182142205E+00
(PID.TID 0000.0001) %MON dynstat_theta_sd             =   4.3501143053265E+00
(PID.TID 0000.0001) %MON dynstat_theta_del2           =   1.3924455636589E-01
(PID.TID 0000.0001) %MON dynstat_salt_max             =   3.7403094354357E+01
(PID.TID 0000.0001) %MON dynstat_salt_min             =   2.9840862343015E+01
(PID.TID 0000.0001) %MON dynstat_salt_mean            =   3.4716026195790E+01
(PID.TID 0000.0001) %MON dynstat_salt_sd              =   2.9488486961305E-01
(PID.TID 0000.0001) %MON dynstat_salt_del2            =   2.5944239620730E-02
(PID.TID 0000.0001) %MON dynstat_sst_max              =   2.9620302692674E+01
(PID.TID 0000.0001) %MON dynstat_sst_min              =  -1.9428622951467E+00
(PID.TID 0000.0001) %MON dynstat_sst_mean             =   1.8558132532416E+01
(PID.TID 0000.0001) %MON dynstat_sst_sd               =   8.9459933025006E+00
(PID.TID 0000.0001) %MON dynstat_sst_del2             =   2.7577183220802E-01
(PID.TID 0000.0001) %MON dynstat_sss_max              =   3.7403092935489E+01
(PID.TID 0000.0001) %MON dynstat_sss_min              =   2.9840862343015E+01
(PID.TID 0000.0001) %MON dynstat_sss_mean             =   3.4840833354439E+01
(PID.TID 0000.0001) %MON dynstat_sss_sd               =   9.6723703553681E-01
(PID.TID 0000.0001) %MON dynstat_sss_del2             =   8.1539510605164E-02
(PID.TID 0000.0001) %MON extforcing_qnet_max          =   4.1340137990316E+02
(PID.TID 0000.0001) %MON extforcing_qnet_min          =  -1.7798363291423E+02
(PID.TID 0000.0001) %MON extforcing_qnet_mean         =  -1.5790798078115E+01
(PID.TID 0000.0001) %MON extforcing_qnet_sd           =   1.0082365217737E+02
(PID.TID 0000.0001) %MON extforcing_qnet_del2         =   9.2507458064913E+00
(PID.TID 0000.0001) %MON extforcing_qsw_max           =   0.0000000000000E+00
(PID.TID 0000.0001) %MON extforcing_qsw_min           =   0.0000000000000E+00
(PID.TID 0000.0001) %MON extforcing_qsw_mean          =   0.0000000000000E+00
(PID.TID 0000.0001) %MON extforcing_qsw_sd            =   0.0000000000000E+00
(PID.TID 0000.0001) %MON extforcing_qsw_del2          =   0.0000000000000E+00
(PID.TID 0000.0001) %MON extforcing_empmr_max         =   0.0000000000000E+00
(PID.TID 0000.0001) %MON extforcing_empmr_min         =   0.0000000000000E+00
(PID.TID 0000.0001) %MON extforcing_empmr_mean        =   0.0000000000000E+00
(PID.TID 0000.0001) %MON extforcing_empmr_sd          =   0.0000000000000E+00
(PID.TID 0000.0001) %MON extforcing_empmr_del2        =   0.0000000000000E+00
(PID.TID 0000.0001) %MON extforcing_fu_max            =   2.7711223959923E-01
(PID.TID 0000.0001) %MON extforcing_fu_min            =  -1.8004398941994E-01
(PID.TID 0000.0001) %MON extforcing_fu_mean           =   1.6463286984052E-02
(PID.TID 0000.0001) %MON extforcing_fu_sd             =   9.0028285798801E-02
(PID.TID 0000.0001) %MON extforcing_fu_del2           =   7.3680007362123E-03
(PID.TID 0000.0001) %MON extforcing_fv_max            =   2.0584952111046E-01
(PID.TID 0000.0001) %MON extforcing_fv_min            =  -1.6971085220575E-01
(PID.TID 0000.0001) %MON extforcing_fv_mean           =  -5.8136154465841E-03
(PID.TID 0000.0001) %MON extforcing_fv_sd             =   4.5959728419219E-02
(PID.TID 0000.0001) %MON extforcing_fv_del2           =   4.4448667962379E-03
(PID.TID 0000.0001) %MON advcfl_uvel_max              =   1.8777523765474E-02
(PID.TID 0000.0001) %MON advcfl_vvel_max              =   1.2734459552702E-02
(PID.TID 0000.0001) %MON advcfl_wvel_max              =   1.7594199279237E-01
(PID.TID 0000.0001) %MON advcfl_W_hf_max              =   1.2453912938952E-01
(PID.TID 0000.0001) %MON pe_b_mean                    =   2.3172111938947E-04
(PID.TID 0000.0001) %MON ke_max                       =   1.6793029308092E-02
(PID.TID 0000.0001) %MON ke_mean                      =   1.7288145138132E-04
(PID.TID 0000.0001) %MON ke_vol                       =   1.3226782436723E+18
(PID.TID 0000.0001) %MON vort_r_min                   =  -5.1513562181039E-07
(PID.TID 0000.0001) %MON vort_r_max                   =   4.9752979553428E-07
(PID.TID 0000.0001) %MON vort_a_mean                  =  -2.5205769150870E-05
(PID.TID 0000.0001) %MON vort_a_sd                    =   7.3402989373080E-05
(PID.TID 0000.0001) %MON vort_p_mean                  =  -3.1758669251838E-05
(PID.TID 0000.0001) %MON vort_p_sd                    =   1.3126418036908E-04
(PID.TID 0000.0001) %MON surfExpan_theta_mean         =   3.0044602331780E-05
(PID.TID 0000.0001) %MON surfExpan_salt_mean          =   2.0022233308617E-06
(PID.TID 0000.0001) // =======================================================
(PID.TID 0000.0001) // End MONITOR dynamic field statistics
(PID.TID 0000.0001) // =======================================================
time,SST,SSS,fu,fv,Q,E-P,i0,i1,a,b =   2.0736E+06  5.1134E-01  3.4627E+01 -2.9273E-02 -4.5370E-02  2.5818E+02  0.0000E+00     1     2  3.0000E-01  7.0000E-01
time,fu0,fu1,fu =   2.0736E+06 -3.5633E-02 -1.4435E-02 -2.9273E-02  3.000000000000000E-01  7.000000000000000E-01
 cg2d: Sum(rhs),rhsMax =   5.34072785995932E-13  8.05769496589381E+00
(PID.TID 0000.0001)                    cg2d_init_res =    6.65247217356051E-01
(PID.TID 0000.0001)                       cg2d_iters =    25
(PID.TID 0000.0001)                         cg2d_res =    2.40112608508858E-14
(PID.TID 0000.0001) // =======================================================
(PID.TID 0000.0001) // Begin MONITOR dynamic field statistics
(PID.TID 0000.0001) // =======================================================
(PID.TID 0000.0001) %MON time_tsnumber                =                    49
(PID.TID 0000.0001) %MON time_secondsf                =   2.1168000000000E+06
(PID.TID 0000.0001) %MON dynstat_eta_max              =   9.6978391224853E-01
(PID.TID 0000.0001) %MON dynstat_eta_min              =  -1.3609666607875E+00
(PID.TID 0000.0001) %MON dynstat_eta_mean             =  -8.7959885429291E-17
(PID.TID 0000.0001) %MON dynstat_eta_sd               =   4.2808108634341E-01
(PID.TID 0000.0001) %MON dynstat_eta_del2             =   2.5018551198568E-02
(PID.TID 0000.0001) %MON dynstat_uvel_max             =   1.1986440866103E-01
(PID.TID 0000.0001) %MON dynstat_uvel_min             =  -1.8765963381872E-01
(PID.TID 0000.0001) %MON dynstat_uvel_mean            =  -2.1167808830530E-03
(PID.TID 0000.0001) %MON dynstat_uvel_sd              =   1.4400545014989E-02
(PID.TID 0000.0001) %MON dynstat_uvel_del2            =   3.2366952380602E-03
(PID.TID 0000.0001) %MON dynstat_vvel_max             =   1.4271183685838E-01
(PID.TID 0000.0001) %MON dynstat_vvel_min             =  -1.1917028482501E-01
(PID.TID 0000.0001) %MON dynstat_vvel_mean            =   1.8707426683403E-03
(PID.TID 0000.0001) %MON dynstat_vvel_sd              =   1.3131804454328E-02
(PID.TID 0000.0001) %MON dynstat_vvel_del2            =   3.3101544710207E-03
(PID.TID 0000.0001) %MON dynstat_wvel_max             =   1.6323239542099E-04
(PID.TID 0000.0001) %MON dynstat_wvel_min             =  -3.0193914929998E-04
(PID.TID 0000.0001) %MON dynstat_wvel_mean            =  -3.4141609711754E-22
(PID.TID 0000.0001) %MON dynstat_wvel_sd              =   2.1817928195235E-05
(PID.TID 0000.0001) %MON dynstat_wvel_del2            =   8.1742022756017E-06
(PID.TID 0000.0001) %MON dynstat_theta_max            =   2.9709819584682E+01
(PID.TID 0000.0001) %MON dynstat_theta_min            =  -2.0143931808204E+00
(PID.TID 0000.0001) %MON dynstat_theta_mean           =   3.5921260028895E+00
(PID.TID 0000.0001) %MON dynstat_theta_sd             =   4.3491124957347E+00
(PID.TID 0000.0001) %MON dynstat_theta_del2           =   1.3911387233370E-01
(PID.TID 0000.0001) %MON dynstat_salt_max             =   3.7403242171560E+01
(PID.TID 0000.0001) %MON dynstat_salt_min             =   2.9842315229056E+01
(PID.TID 0000.0001) %MON dynstat_salt_mean            =   3.4716006752346E+01
(PID.TID 0000.0001) %MON dynstat_salt_sd              =   2.9486913169218E-01
(PID.TID 0000.0001) %MON dynstat_salt_del2            =   2.5913278249936E-02
(PID.TID 0000.0001) %MON dynstat_sst_max              =   2.9709819584682E+01
(PID.TID 0000.0001) %MON dynstat_sst_min              =  -1.9425939939789E+00
(PID.TID 0000.0001) %MON dynstat_sst_mean             =   1.8560574671257E+01
(PID.TID 0000.0001) %MON dynstat_sst_sd               =   8.9401229756728E+00
(PID.TID 0000.0001) %MON dynstat_sst_del2             =   2.7565031155073E-01
(PID.TID 0000.0001) %MON dynstat_sss_max              =   3.7403240722539E+01
(PID.TID 0000.0001) %MON dynstat_sss_min              =   2.9842315229056E+01
(PID.TID 0000.0001) %MON dynstat_sss_mean             =   3.4840624369259E+01
(PID.TID 0000.0001) %MON dynstat_sss_sd               =   9.6717546150650E-01
(PID.TID 0000.0001) %MON dynstat_sss_del2             =   8.1462629711213E-02
(PID.TID 0000.0001) %MON extforcing_qnet_max          =   4.1174183654785E+02
(PID.TID 0000.0001) %MON extforcing_qnet_min          =  -1.7786387329102E+02
(PID.TID 0000.0001) %MON extforcing_qnet_mean         =  -1.5748343494414E+01
(PID.TID 0000.0001) %MON extforcing_qnet_sd           =   1.0030047515306E+02
(PID.TID 0000.0001) %MON extforcing_qnet_del2         =   9.2279944928483E+00
(PID.TID 0000.0001) %MON extforcing_qsw_max           =   0.0000000000000E+00
(PID.TID 0000.0001) %MON extforcing_qsw_min           =   0.0000000000000E+00
(PID.TID 0000.0001) %MON extforcing_qsw_mean          =   0.0000000000000E+00
(PID.TID 0000.0001) %MON extforcing_qsw_sd            =   0.0000000000000E+00
(PID.TID 0000.0001) %MON extforcing_qsw_del2          =   0.0000000000000E+00
(PID.TID 0000.0001) %MON extforcing_empmr_max         =   0.0000000000000E+00
(PID.TID 0000.0001) %MON extforcing_empmr_min         =   0.0000000000000E+00
(PID.TID 0000.0001) %MON extforcing_empmr_mean        =   0.0000000000000E+00
(PID.TID 0000.0001) %MON extforcing_empmr_sd          =   0.0000000000000E+00
(PID.TID 0000.0001) %MON extforcing_empmr_del2        =   0.0000000000000E+00
(PID.TID 0000.0001) %MON extforcing_fu_max            =   2.7701420187950E-01
(PID.TID 0000.0001) %MON extforcing_fu_min            =  -1.8087395131588E-01
(PID.TID 0000.0001) %MON extforcing_fu_mean           =   1.6490437091787E-02
(PID.TID 0000.0001) %MON extforcing_fu_sd             =   9.0006638203509E-02
(PID.TID 0000.0001) %MON extforcing_fu_del2           =   7.3605327675130E-03
(PID.TID 0000.0001) %MON extforcing_fv_max            =   2.0424529761076E-01
(PID.TID 0000.0001) %MON extforcing_fv_min            =  -1.6921520233154E-01
(PID.TID 0000.0001) %MON extforcing_fv_mean           =  -5.8462458999417E-03
(PID.TID 0000.0001) %MON extforcing_fv_sd             =   4.5856746175698E-02
(PID.TID 0000.0001) %MON extforcing_fv_del2           =   4.4325966405230E-03
(PID.TID 0000.0001) %MON advcfl_uvel_max              =   1.8787703668564E-02
(PID.TID 0000.0001) %MON advcfl_vvel_max              =   1.3863310539448E-02
(PID.TID 0000.0001) %MON advcfl_wvel_max              =   1.9773934079344E-01
(PID.TID 0000.0001) %MON advcfl_W_hf_max              =   1.3995875892436E-01
(PID.TID 0000.0001) %MON pe_b_mean                    =   2.3449483444554E-04
(PID.TID 0000.0001) %MON ke_max                       =   1.6777443561989E-02
(PID.TID 0000.0001) %MON ke_mean                      =   1.7523855477903E-04
(PID.TID 0000.0001) %MON ke_vol                       =   1.3226782436723E+18
(PID.TID 0000.0001) %MON vort_r_min                   =  -5.2286799291363E-07
(PID.TID 0000.0001) %MON vort_r_max                   =   4.9508524348355E-07
(PID.TID 0000.0001) %MON vort_a_mean                  =  -2.5205769164052E-05
(PID.TID 0000.0001) %MON vort_a_sd                    =   7.3402986569350E-05
(PID.TID 0000.0001) %MON vort_p_mean                  =  -3.1758669268448E-05
(PID.TID 0000.0001) %MON vort_p_sd                    =   1.3126417664028E-04
(PID.TID 0000.0001) %MON surfExpan_theta_mean         =   2.8981487672259E-05
(PID.TID 0000.0001) %MON surfExpan_salt_mean          =   1.5807774571767E-06
(PID.TID 0000.0001) // =======================================================
(PID.TID 0000.0001) // End MONITOR dynamic field statistics
(PID.TID 0000.0001) // =======================================================
time,SST,SSS,fu,fv,Q,E-P,i0,i1,a,b =   2.1168E+06  4.8650E-01  3.4622E+01 -2.8920E-02 -4.4710E-02  2.5776E+02  0.0000E+00     1     2  3.1667E-01  6.8333E-01
time,fu0,fu1,fu =   2.1168E+06 -3.5633E-02 -1.4435E-02 -2.8920E-02  3.166666666666667E-01  6.833333333333333E-01
 cg2d: Sum(rhs),rhsMax =   3.30714622354122E-13  8.09041663266680E+00
(PID.TID 0000.0001)                    cg2d_init_res =    6.48878146050721E-01
(PID.TID 0000.0001)                       cg2d_iters =    25
(PID.TID 0000.0001)                         cg2d_res =    2.43095659728636E-14
(PID.TID 0000.0001) // =======================================================
(PID.TID 0000.0001) // Begin MONITOR dynamic field statistics
(PID.TID 0000.0001) // =======================================================
(PID.TID 0000.0001) %MON time_tsnumber                =                    50
(PID.TID 0000.0001) %MON time_secondsf                =   2.1600000000000E+06
(PID.TID 0000.0001) %MON dynstat_eta_max              =   9.7502315833482E-01
(PID.TID 0000.0001) %MON dynstat_eta_min              =  -1.3675288430804E+00
(PID.TID 0000.0001) %MON dynstat_eta_mean             =  -2.5046492472626E-16
(PID.TID 0000.0001) %MON dynstat_eta_sd               =   4.3034824179664E-01
(PID.TID 0000.0001) %MON dynstat_eta_del2             =   2.4959045608074E-02
(PID.TID 0000.0001) %MON dynstat_uvel_max             =   1.1846338452864E-01
(PID.TID 0000.0001) %MON dynstat_uvel_min             =  -1.8750028863901E-01
(PID.TID 0000.0001) %MON dynstat_uvel_mean            =  -2.1066896976756E-03
(PID.TID 0000.0001) %MON dynstat_uvel_sd              =   1.4543016069531E-02
(PID.TID 0000.0001) %MON dynstat_uvel_del2            =   3.2542591042996E-03
(PID.TID 0000.0001) %MON dynstat_vvel_max             =   1.4946265988703E-01
(PID.TID 0000.0001) %MON dynstat_vvel_min             =  -1.1593658864069E-01
(PID.TID 0000.0001) %MON dynstat_vvel_mean            =   1.5117417601387E-03
(PID.TID 0000.0001) %MON dynstat_vvel_sd              =   1.3270743063089E-02
(PID.TID 0000.0001) %MON dynstat_vvel_del2            =   3.3369082208948E-03
(PID.TID 0000.0001) %MON dynstat_wvel_max             =   1.7286110929385E-04
(PID.TID 0000.0001) %MON dynstat_wvel_min             =  -3.0933530046571E-04
(PID.TID 0000.0001) %MON dynstat_wvel_mean            =   1.9832410371023E-22
(PID.TID 0000.0001) %MON dynstat_wvel_sd              =   2.2070006041362E-05
(PID.TID 0000.0001) %MON dynstat_wvel_del2            =   8.2367549415465E-06
(PID.TID 0000.0001) %MON dynstat_theta_max            =   2.9815641733632E+01
(PID.TID 0000.0001) %MON dynstat_theta_min            =  -2.0154971866193E+00
(PID.TID 0000.0001) %MON dynstat_theta_mean           =   3.5918472268521E+00
(PID.TID 0000.0001) %MON dynstat_theta_sd             =   4.3481115526121E+00
(PID.TID 0000.0001) %MON dynstat_theta_del2           =   1.3896144597019E-01
(PID.TID 0000.0001) %MON dynstat_salt_max             =   3.7403344267927E+01
(PID.TID 0000.0001) %MON dynstat_salt_min             =   2.9843660113580E+01
(PID.TID 0000.0001) %MON dynstat_salt_mean            =   3.4715992126838E+01
(PID.TID 0000.0001) %MON dynstat_salt_sd              =   2.9486144645592E-01
(PID.TID 0000.0001) %MON dynstat_salt_del2            =   2.5875954036206E-02
(PID.TID 0000.0001) %MON dynstat_sst_max              =   2.9815641733632E+01
(PID.TID 0000.0001) %MON dynstat_sst_min              =  -1.9425499981452E+00
(PID.TID 0000.0001) %MON dynstat_sst_mean             =   1.8563193919974E+01
(PID.TID 0000.0001) %MON dynstat_sst_sd               =   8.9338958579483E+00
(PID.TID 0000.0001) %MON dynstat_sst_del2             =   2.7532779177495E-01
(PID.TID 0000.0001) %MON dynstat_sss_max              =   3.7403342808094E+01
(PID.TID 0000.0001) %MON dynstat_sss_min              =   2.9843660113580E+01
(PID.TID 0000.0001) %MON dynstat_sss_mean             =   3.4840537863763E+01
(PID.TID 0000.0001) %MON dynstat_sss_sd               =   9.6705259015731E-01
(PID.TID 0000.0001) %MON dynstat_sss_del2             =   8.1359236866299E-02
(PID.TID 0000.0001) %MON extforcing_qnet_max          =   4.1008229319255E+02
(PID.TID 0000.0001) %MON extforcing_qnet_min          =  -1.7774411366781E+02
(PID.TID 0000.0001) %MON extforcing_qnet_mean         =  -1.5705888910712E+01
(PID.TID 0000.0001) %MON extforcing_qnet_sd           =   9.9778414502146E+01
(PID.TID 0000.0001) %MON extforcing_qnet_del2         =   9.2053397860092E+00
(PID.TID 0000.0001) %MON extforcing_qsw_max           =   0.0000000000000E+00
(PID.TID 0000.0001) %MON extforcing_qsw_min           =   0.0000000000000E+00
(PID.TID 0000.0001) %MON extforcing_qsw_mean          =   0.0000000000000E+00
(PID.TID 0000.0001) %MON extforcing_qsw_sd            =   0.0000000000000E+00
(PID.TID 0000.0001) %MON extforcing_qsw_del2          =   0.0000000000000E+00
(PID.TID 0000.0001) %MON extforcing_empmr_max         =   0.0000000000000E+00
(PID.TID 0000.0001) %MON extforcing_empmr_min         =   0.0000000000000E+00
(PID.TID 0000.0001) %MON extforcing_empmr_mean        =   0.0000000000000E+00
(PID.TID 0000.0001) %MON extforcing_empmr_sd          =   0.0000000000000E+00
(PID.TID 0000.0001) %MON extforcing_empmr_del2        =   0.0000000000000E+00
(PID.TID 0000.0001) %MON extforcing_fu_max            =   2.7691616415977E-01
(PID.TID 0000.0001) %MON extforcing_fu_min            =  -1.8170391321182E-01
(PID.TID 0000.0001) %MON extforcing_fu_mean           =   1.6517587199521E-02
(PID.TID 0000.0001) %MON extforcing_fu_sd             =   8.9989379816139E-02
(PID.TID 0000.0001) %MON extforcing_fu_del2           =   7.3542096614625E-03
(PID.TID 0000.0001) %MON extforcing_fv_max            =   2.0264107411106E-01
(PID.TID 0000.0001) %MON extforcing_fv_min            =  -1.6871955245733E-01
(PID.TID 0000.0001) %MON extforcing_fv_mean           =  -5.8788763532993E-03
(PID.TID 0000.0001) %MON extforcing_fv_sd             =   4.5757452410726E-02
(PID.TID 0000.0001) %MON extforcing_fv_del2           =   4.4213317449729E-03
(PID.TID 0000.0001) %MON advcfl_uvel_max              =   1.8771750690523E-02
(PID.TID 0000.0001) %MON advcfl_vvel_max              =   1.4519098861589E-02
(PID.TID 0000.0001) %MON advcfl_wvel_max              =   2.1301171789124E-01
(PID.TID 0000.0001) %MON advcfl_W_hf_max              =   1.5075322909680E-01
(PID.TID 0000.0001) %MON pe_b_mean                    =   2.3698522262690E-04
(PID.TID 0000.0001) %MON ke_max                       =   1.6740613858815E-02
(PID.TID 0000.0001) %MON ke_mean                      =   1.7819433113557E-04
(PID.TID 0000.0001) %MON ke_vol                       =   1.3226782436723E+18
(PID.TID 0000.0001) %MON vort_r_min                   =  -5.2840428276307E-07
(PID.TID 0000.0001) %MON vort_r_max                   =   4.9475452574220E-07
(PID.TID 0000.0001) %MON vort_a_mean                  =  -2.5205769179982E-05
(PID.TID 0000.0001) %MON vort_a_sd                    =   7.3402986673439E-05
(PID.TID 0000.0001) %MON vort_p_mean                  =  -3.1758669288519E-05
(PID.TID 0000.0001) %MON vort_p_sd                    =   1.3126418178525E-04
(PID.TID 0000.0001) %MON surfExpan_theta_mean         =   2.7746811932399E-05
(PID.TID 0000.0001) %MON surfExpan_salt_mean          =   1.1674174890777E-06
(PID.TID 0000.0001) // =======================================================
(PID.TID 0000.0001) // End MONITOR dynamic field statistics
(PID.TID 0000.0001) // =======================================================
time,SST,SSS,fu,fv,Q,E-P,i0,i1,a,b =   2.1600E+06  4.6166E-01  3.4617E+01 -2.8567E-02 -4.4050E-02  2.5734E+02  0.0000E+00     1     2  3.3333E-01  6.6667E-01
time,fu0,fu1,fu =   2.1600E+06 -3.5633E-02 -1.4435E-02 -2.8567E-02  3.333333333333333E-01  6.666666666666667E-01
 cg2d: Sum(rhs),rhsMax =   2.99107960621825E-13  8.08616408049314E+00
(PID.TID 0000.0001)                    cg2d_init_res =    6.36696518586645E-01
(PID.TID 0000.0001)                       cg2d_iters =    25
(PID.TID 0000.0001)                         cg2d_res =    2.53383504527773E-14
(PID.TID 0000.0001) // =======================================================
(PID.TID 0000.0001) // Begin MONITOR dynamic field statistics
(PID.TID 0000.0001) // =======================================================
(PID.TID 0000.0001) %MON time_tsnumber                =                    51
(PID.TID 0000.0001) %MON time_secondsf                =   2.2032000000000E+06
(PID.TID 0000.0001) %MON dynstat_eta_max              =   9.7603916430427E-01
(PID.TID 0000.0001) %MON dynstat_eta_min              =  -1.3671389608013E+00
(PID.TID 0000.0001) %MON dynstat_eta_mean             =  -1.3796796701023E-16
(PID.TID 0000.0001) %MON dynstat_eta_sd               =   4.3237668339428E-01
(PID.TID 0000.0001) %MON dynstat_eta_del2             =   2.4890836567048E-02
(PID.TID 0000.0001) %MON dynstat_uvel_max             =   1.1573280945833E-01
(PID.TID 0000.0001) %MON dynstat_uvel_min             =  -1.8708053092441E-01
(PID.TID 0000.0001) %MON dynstat_uvel_mean            =  -2.0774581979498E-03
(PID.TID 0000.0001) %MON dynstat_uvel_sd              =   1.4689006124044E-02
(PID.TID 0000.0001) %MON dynstat_uvel_del2            =   3.2716628363298E-03
(PID.TID 0000.0001) %MON dynstat_vvel_max             =   1.5121495863953E-01
(PID.TID 0000.0001) %MON dynstat_vvel_min             =  -1.1702815993836E-01
(PID.TID 0000.0001) %MON dynstat_vvel_mean            =   1.1545147633956E-03
(PID.TID 0000.0001) %MON dynstat_vvel_sd              =   1.3439171162006E-02
(PID.TID 0000.0001) %MON dynstat_vvel_del2            =   3.3601372122357E-03
(PID.TID 0000.0001) %MON dynstat_wvel_max             =   1.8235946019228E-04
(PID.TID 0000.0001) %MON dynstat_wvel_min             =  -3.1357332624021E-04
(PID.TID 0000.0001) %MON dynstat_wvel_mean            =  -6.0571825950151E-22
(PID.TID 0000.0001) %MON dynstat_wvel_sd              =   2.2298543480665E-05
(PID.TID 0000.0001) %MON dynstat_wvel_del2            =   8.2633381950405E-06
(PID.TID 0000.0001) %MON dynstat_theta_max            =   2.9913140775050E+01
(PID.TID 0000.0001) %MON dynstat_theta_min            =  -2.0166647227732E+00
(PID.TID 0000.0001) %MON dynstat_theta_mean           =   3.5915834314367E+00
(PID.TID 0000.0001) %MON dynstat_theta_sd             =   4.3471300152055E+00
(PID.TID 0000.0001) %MON dynstat_theta_del2           =   1.3881066511208E-01
(PID.TID 0000.0001) %MON dynstat_salt_max             =   3.7403378458729E+01
(PID.TID 0000.0001) %MON dynstat_salt_min             =   2.9844912234376E+01
(PID.TID 0000.0001) %MON dynstat_salt_mean            =   3.4715982105639E+01
(PID.TID 0000.0001) %MON dynstat_salt_sd              =   2.9486218479223E-01
(PID.TID 0000.0001) %MON dynstat_salt_del2            =   2.5845906382935E-02
(PID.TID 0000.0001) %MON dynstat_sst_max              =   2.9913140775050E+01
(PID.TID 0000.0001) %MON dynstat_sst_min              =  -1.9426925029683E+00
(PID.TID 0000.0001) %MON dynstat_sst_mean             =   1.8565947575189E+01
(PID.TID 0000.0001) %MON dynstat_sst_sd               =   8.9280190312041E+00
(PID.TID 0000.0001) %MON dynstat_sst_del2             =   2.7500839126114E-01
(PID.TID 0000.0001) %MON dynstat_sss_max              =   3.7403377005780E+01
(PID.TID 0000.0001) %MON dynstat_sss_min              =   2.9844912234376E+01
(PID.TID 0000.0001) %MON dynstat_sss_mean             =   3.4840591997097E+01
(PID.TID 0000.0001) %MON dynstat_sss_sd               =   9.6694210177302E-01
(PID.TID 0000.0001) %MON dynstat_sss_del2             =   8.1306718442785E-02
(PID.TID 0000.0001) %MON extforcing_qnet_max          =   4.0842274983724E+02
(PID.TID 0000.0001) %MON extforcing_qnet_min          =  -1.7762435404460E+02
(PID.TID 0000.0001) %MON extforcing_qnet_mean         =  -1.5663434327010E+01
(PID.TID 0000.0001) %MON extforcing_qnet_sd           =   9.9257487839865E+01
(PID.TID 0000.0001) %MON extforcing_qnet_del2         =   9.1830879864781E+00
(PID.TID 0000.0001) %MON extforcing_qsw_max           =   0.0000000000000E+00
(PID.TID 0000.0001) %MON extforcing_qsw_min           =   0.0000000000000E+00
(PID.TID 0000.0001) %MON extforcing_qsw_mean          =   0.0000000000000E+00
(PID.TID 0000.0001) %MON extforcing_qsw_sd            =   0.0000000000000E+00
(PID.TID 0000.0001) %MON extforcing_qsw_del2          =   0.0000000000000E+00
(PID.TID 0000.0001) %MON extforcing_empmr_max         =   0.0000000000000E+00
(PID.TID 0000.0001) %MON extforcing_empmr_min         =   0.0000000000000E+00
(PID.TID 0000.0001) %MON extforcing_empmr_mean        =   0.0000000000000E+00
(PID.TID 0000.0001) %MON extforcing_empmr_sd          =   0.0000000000000E+00
(PID.TID 0000.0001) %MON extforcing_empmr_del2        =   0.0000000000000E+00
(PID.TID 0000.0001) %MON extforcing_fu_max            =   2.7689236402512E-01
(PID.TID 0000.0001) %MON extforcing_fu_min            =  -1.8253387510777E-01
(PID.TID 0000.0001) %MON extforcing_fu_mean           =   1.6544737307256E-02
(PID.TID 0000.0001) %MON extforcing_fu_sd             =   8.9976513162372E-02
(PID.TID 0000.0001) %MON extforcing_fu_del2           =   7.3488586478963E-03
(PID.TID 0000.0001) %MON extforcing_fv_max            =   2.0103685061137E-01
(PID.TID 0000.0001) %MON extforcing_fv_min            =  -1.6822390258312E-01
(PID.TID 0000.0001) %MON extforcing_fv_mean           =  -5.9115068066569E-03
(PID.TID 0000.0001) %MON extforcing_fv_sd             =   4.5661871186592E-02
(PID.TID 0000.0001) %MON extforcing_fv_del2           =   4.4108750136225E-03
(PID.TID 0000.0001) %MON advcfl_uvel_max              =   1.8729726290315E-02
(PID.TID 0000.0001) %MON advcfl_vvel_max              =   1.4689320633647E-02
(PID.TID 0000.0001) %MON advcfl_wvel_max              =   2.2139585291409E-01
(PID.TID 0000.0001) %MON advcfl_W_hf_max              =   1.5666625250489E-01
(PID.TID 0000.0001) %MON pe_b_mean                    =   2.3922454208498E-04
(PID.TID 0000.0001) %MON ke_max                       =   1.6682401713443E-02
(PID.TID 0000.0001) %MON ke_mean                      =   1.8166965574000E-04
(PID.TID 0000.0001) %MON ke_vol                       =   1.3226782436723E+18
(PID.TID 0000.0001) %MON vort_r_min                   =  -5.3190228526064E-07
(PID.TID 0000.0001) %MON vort_r_max                   =   4.9751653057721E-07
(PID.TID 0000.0001) %MON vort_a_mean                  =  -2.5205769197258E-05
(PID.TID 0000.0001) %MON vort_a_sd                    =   7.3402989956990E-05
(PID.TID 0000.0001) %MON vort_p_mean                  =  -3.1758669310285E-05
(PID.TID 0000.0001) %MON vort_p_sd                    =   1.3126419540207E-04
(PID.TID 0000.0001) %MON surfExpan_theta_mean         =   2.6389422499206E-05
(PID.TID 0000.0001) %MON surfExpan_salt_mean          =   7.7769795260810E-07
(PID.TID 0000.0001) // =======================================================
(PID.TID 0000.0001) // End MONITOR dynamic field statistics
(PID.TID 0000.0001) // =======================================================
time,SST,SSS,fu,fv,Q,E-P,i0,i1,a,b =   2.2032E+06  4.3683E-01  3.4612E+01 -2.8214E-02 -4.3389E-02  2.5692E+02  0.0000E+00     1     2  3.5000E-01  6.5000E-01
time,fu0,fu1,fu =   2.2032E+06 -3.5633E-02 -1.4435E-02 -2.8214E-02  3.500000000000000E-01  6.500000000000000E-01
 cg2d: Sum(rhs),rhsMax =   6.00977601017405E-14  8.05674081750532E+00
(PID.TID 0000.0001)                    cg2d_init_res =    6.28246459383661E-01
(PID.TID 0000.0001)                       cg2d_iters =    25
(PID.TID 0000.0001)                         cg2d_res =    2.61546108640044E-14
(PID.TID 0000.0001) // =======================================================
(PID.TID 0000.0001) // Begin MONITOR dynamic field statistics
(PID.TID 0000.0001) // =======================================================
(PID.TID 0000.0001) %MON time_tsnumber                =                    52
(PID.TID 0000.0001) %MON time_secondsf                =   2.2464000000000E+06
(PID.TID 0000.0001) %MON dynstat_eta_max              =   9.7413186353518E-01
(PID.TID 0000.0001) %MON dynstat_eta_min              =  -1.3606550346669E+00
(PID.TID 0000.0001) %MON dynstat_eta_mean             =  -1.1077058930832E-16
(PID.TID 0000.0001) %MON dynstat_eta_sd               =   4.3420579284082E-01
(PID.TID 0000.0001) %MON dynstat_eta_del2             =   2.4817754160069E-02
(PID.TID 0000.0001) %MON dynstat_uvel_max             =   1.1171693361256E-01
(PID.TID 0000.0001) %MON dynstat_uvel_min             =  -1.8640219325485E-01
(PID.TID 0000.0001) %MON dynstat_uvel_mean            =  -2.0292149488222E-03
(PID.TID 0000.0001) %MON dynstat_uvel_sd              =   1.4839584370769E-02
(PID.TID 0000.0001) %MON dynstat_uvel_del2            =   3.2896284713300E-03
(PID.TID 0000.0001) %MON dynstat_vvel_max             =   1.4877846474685E-01
(PID.TID 0000.0001) %MON dynstat_vvel_min             =  -1.1908165865318E-01
(PID.TID 0000.0001) %MON dynstat_vvel_mean            =   8.0395309194295E-04
(PID.TID 0000.0001) %MON dynstat_vvel_sd              =   1.3626852058223E-02
(PID.TID 0000.0001) %MON dynstat_vvel_del2            =   3.3784451247030E-03
(PID.TID 0000.0001) %MON dynstat_wvel_max             =   1.9150451739828E-04
(PID.TID 0000.0001) %MON dynstat_wvel_min             =  -3.1471122590597E-04
(PID.TID 0000.0001) %MON dynstat_wvel_mean            =   2.6023085857219E-22
(PID.TID 0000.0001) %MON dynstat_wvel_sd              =   2.2490571945021E-05
(PID.TID 0000.0001) %MON dynstat_wvel_del2            =   8.2551199689117E-06
(PID.TID 0000.0001) %MON dynstat_theta_max            =   3.0000642045343E+01
(PID.TID 0000.0001) %MON dynstat_theta_min            =  -2.0178525727542E+00
(PID.TID 0000.0001) %MON dynstat_theta_mean           =   3.5913356660125E+00
(PID.TID 0000.0001) %MON dynstat_theta_sd             =   4.3461839738144E+00
(PID.TID 0000.0001) %MON dynstat_theta_del2           =   1.3866834014056E-01
(PID.TID 0000.0001) %MON dynstat_salt_max             =   3.7403326084225E+01
(PID.TID 0000.0001) %MON dynstat_salt_min             =   2.9846087089642E+01
(PID.TID 0000.0001) %MON dynstat_salt_mean            =   3.4715976311650E+01
(PID.TID 0000.0001) %MON dynstat_salt_sd              =   2.9487178030122E-01
(PID.TID 0000.0001) %MON dynstat_salt_del2            =   2.5810294916864E-02
(PID.TID 0000.0001) %MON dynstat_sst_max              =   3.0000642045343E+01
(PID.TID 0000.0001) %MON dynstat_sst_min              =  -1.9429807410600E+00
(PID.TID 0000.0001) %MON dynstat_sst_mean             =   1.8568604960498E+01
(PID.TID 0000.0001) %MON dynstat_sst_sd               =   8.9221512047691E+00
(PID.TID 0000.0001) %MON dynstat_sst_del2             =   2.7478432116740E-01
(PID.TID 0000.0001) %MON dynstat_sss_max              =   3.7403324653621E+01
(PID.TID 0000.0001) %MON dynstat_sss_min              =   2.9846087089642E+01
(PID.TID 0000.0001) %MON dynstat_sss_mean             =   3.4840670222657E+01
(PID.TID 0000.0001) %MON dynstat_sss_sd               =   9.6671576830057E-01
(PID.TID 0000.0001) %MON dynstat_sss_del2             =   8.1207787985962E-02
(PID.TID 0000.0001) %MON extforcing_qnet_max          =   4.0676320648193E+02
(PID.TID 0000.0001) %MON extforcing_qnet_min          =  -1.7750459442139E+02
(PID.TID 0000.0001) %MON extforcing_qnet_mean         =  -1.5620979743309E+01
(PID.TID 0000.0001) %MON extforcing_qnet_sd           =   9.8737713114526E+01
(PID.TID 0000.0001) %MON extforcing_qnet_del2         =   9.1615260297604E+00
(PID.TID 0000.0001) %MON extforcing_qsw_max           =   0.0000000000000E+00
(PID.TID 0000.0001) %MON extforcing_qsw_min           =   0.0000000000000E+00
(PID.TID 0000.0001) %MON extforcing_qsw_mean          =   0.0000000000000E+00
(PID.TID 0000.0001) %MON extforcing_qsw_sd            =   0.0000000000000E+00
(PID.TID 0000.0001) %MON extforcing_qsw_del2          =   0.0000000000000E+00
(PID.TID 0000.0001) %MON extforcing_empmr_max         =   0.0000000000000E+00
(PID.TID 0000.0001) %MON extforcing_empmr_min         =   0.0000000000000E+00
(PID.TID 0000.0001) %MON extforcing_empmr_mean        =   0.0000000000000E+00
(PID.TID 0000.0001) %MON extforcing_empmr_sd          =   0.0000000000000E+00
(PID.TID 0000.0001) %MON extforcing_empmr_del2        =   0.0000000000000E+00
(PID.TID 0000.0001) %MON extforcing_fu_max            =   2.7758594304323E-01
(PID.TID 0000.0001) %MON extforcing_fu_min            =  -1.8336383700371E-01
(PID.TID 0000.0001) %MON extforcing_fu_mean           =   1.6571887414990E-02
(PID.TID 0000.0001) %MON extforcing_fu_sd             =   8.9968040126440E-02
(PID.TID 0000.0001) %MON extforcing_fu_del2           =   7.3449130312538E-03
(PID.TID 0000.0001) %MON extforcing_fv_max            =   1.9943262711167E-01
(PID.TID 0000.0001) %MON extforcing_fv_min            =  -1.6772825270891E-01
(PID.TID 0000.0001) %MON extforcing_fv_mean           =  -5.9441372600145E-03
(PID.TID 0000.0001) %MON extforcing_fv_sd             =   4.5570025863998E-02
(PID.TID 0000.0001) %MON extforcing_fv_del2           =   4.4013196071258E-03
(PID.TID 0000.0001) %MON advcfl_uvel_max              =   1.9167266003900E-02
(PID.TID 0000.0001) %MON advcfl_vvel_max              =   1.4452634790306E-02
(PID.TID 0000.0001) %MON advcfl_wvel_max              =   2.2279272220750E-01
(PID.TID 0000.0001) %MON advcfl_W_hf_max              =   1.5762922810988E-01
(PID.TID 0000.0001) %MON pe_b_mean                    =   2.4125283556902E-04
(PID.TID 0000.0001) %MON ke_max                       =   1.6602783244002E-02
(PID.TID 0000.0001) %MON ke_mean                      =   1.8557200268223E-04
(PID.TID 0000.0001) %MON ke_vol                       =   1.3226782436723E+18
(PID.TID 0000.0001) %MON vort_r_min                   =  -5.3354297145341E-07
(PID.TID 0000.0001) %MON vort_r_max                   =   4.9890609829912E-07
(PID.TID 0000.0001) %MON vort_a_mean                  =  -2.5205769214521E-05
(PID.TID 0000.0001) %MON vort_a_sd                    =   7.3402996546972E-05
(PID.TID 0000.0001) %MON vort_p_mean                  =  -3.1758669332037E-05
(PID.TID 0000.0001) %MON vort_p_sd                    =   1.3126421663651E-04
(PID.TID 0000.0001) %MON surfExpan_theta_mean         =   2.4956707720726E-05
(PID.TID 0000.0001) %MON surfExpan_salt_mean          =   4.2533840236439E-07
(PID.TID 0000.0001) // =======================================================
(PID.TID 0000.0001) // End MONITOR dynamic field statistics
(PID.TID 0000.0001) // =======================================================
time,SST,SSS,fu,fv,Q,E-P,i0,i1,a,b =   2.2464E+06  4.1199E-01  3.4607E+01 -2.7860E-02 -4.2729E-02  2.5650E+02  0.0000E+00     1     2  3.6667E-01  6.3333E-01
time,fu0,fu1,fu =   2.2464E+06 -3.5633E-02 -1.4435E-02 -2.7860E-02  3.666666666666666E-01  6.333333333333333E-01
 cg2d: Sum(rhs),rhsMax =   3.03750080643539E-13  8.18299872245690E+00
(PID.TID 0000.0001)                    cg2d_init_res =    6.09625605805152E-01
(PID.TID 0000.0001)                       cg2d_iters =    25
(PID.TID 0000.0001)                         cg2d_res =    2.54078828679851E-14
(PID.TID 0000.0001) // =======================================================
(PID.TID 0000.0001) // Begin MONITOR dynamic field statistics
(PID.TID 0000.0001) // =======================================================
(PID.TID 0000.0001) %MON time_tsnumber                =                    53
(PID.TID 0000.0001) %MON time_secondsf                =   2.2896000000000E+06
(PID.TID 0000.0001) %MON dynstat_eta_max              =   9.7709378940129E-01
(PID.TID 0000.0001) %MON dynstat_eta_min              =  -1.3491583291492E+00
(PID.TID 0000.0001) %MON dynstat_eta_mean             =  -3.1376745810270E-16
(PID.TID 0000.0001) %MON dynstat_eta_sd               =   4.3587848232505E-01
(PID.TID 0000.0001) %MON dynstat_eta_del2             =   2.4736528008188E-02
(PID.TID 0000.0001) %MON dynstat_uvel_max             =   1.1028411209814E-01
(PID.TID 0000.0001) %MON dynstat_uvel_min             =  -1.8546863374717E-01
(PID.TID 0000.0001) %MON dynstat_uvel_mean            =  -1.9626502542805E-03
(PID.TID 0000.0001) %MON dynstat_uvel_sd              =   1.4996735885292E-02
(PID.TID 0000.0001) %MON dynstat_uvel_del2            =   3.3046441788280E-03
(PID.TID 0000.0001) %MON dynstat_vvel_max             =   1.4167073660323E-01
(PID.TID 0000.0001) %MON dynstat_vvel_min             =  -1.2047609480086E-01
(PID.TID 0000.0001) %MON dynstat_vvel_mean            =   4.6454009985031E-04
(PID.TID 0000.0001) %MON dynstat_vvel_sd              =   1.3822421785806E-02
(PID.TID 0000.0001) %MON dynstat_vvel_del2            =   3.3930569611587E-03
(PID.TID 0000.0001) %MON dynstat_wvel_max             =   2.0008342099504E-04
(PID.TID 0000.0001) %MON dynstat_wvel_min             =  -3.1287214061636E-04
(PID.TID 0000.0001) %MON dynstat_wvel_mean            =   1.4350485801921E-22
(PID.TID 0000.0001) %MON dynstat_wvel_sd              =   2.2635967719509E-05
(PID.TID 0000.0001) %MON dynstat_wvel_del2            =   8.2110311740668E-06
(PID.TID 0000.0001) %MON dynstat_theta_max            =   3.0076650683363E+01
(PID.TID 0000.0001) %MON dynstat_theta_min            =  -2.0190229632189E+00
(PID.TID 0000.0001) %MON dynstat_theta_mean           =   3.5911044729673E+00
(PID.TID 0000.0001) %MON dynstat_theta_sd             =   4.3452872084522E+00
(PID.TID 0000.0001) %MON dynstat_theta_del2           =   1.3852964860980E-01
(PID.TID 0000.0001) %MON dynstat_salt_max             =   3.7403172610505E+01
(PID.TID 0000.0001) %MON dynstat_salt_min             =   2.9847200473684E+01
(PID.TID 0000.0001) %MON dynstat_salt_mean            =   3.4715974232710E+01
(PID.TID 0000.0001) %MON dynstat_salt_sd              =   2.9489015511113E-01
(PID.TID 0000.0001) %MON dynstat_salt_del2            =   2.5775974452206E-02
(PID.TID 0000.0001) %MON dynstat_sst_max              =   3.0076650683363E+01
(PID.TID 0000.0001) %MON dynstat_sst_min              =  -1.9433679220845E+00
(PID.TID 0000.0001) %MON dynstat_sst_mean             =   1.8571393743802E+01
(PID.TID 0000.0001) %MON dynstat_sst_sd               =   8.9164570721573E+00
(PID.TID 0000.0001) %MON dynstat_sst_del2             =   2.7460424635821E-01
(PID.TID 0000.0001) %MON dynstat_sss_max              =   3.7403171214994E+01
(PID.TID 0000.0001) %MON dynstat_sss_min              =   2.9847200473684E+01
(PID.TID 0000.0001) %MON dynstat_sss_mean             =   3.4840836155749E+01
(PID.TID 0000.0001) %MON dynstat_sss_sd               =   9.6644152380355E-01
(PID.TID 0000.0001) %MON dynstat_sss_del2             =   8.1125168641191E-02
(PID.TID 0000.0001) %MON extforcing_qnet_max          =   4.0510366312663E+02
(PID.TID 0000.0001) %MON extforcing_qnet_min          =  -1.7738483479818E+02
(PID.TID 0000.0001) %MON extforcing_qnet_mean         =  -1.5578525159607E+01
(PID.TID 0000.0001) %MON extforcing_qnet_sd           =   9.8219108614254E+01
(PID.TID 0000.0001) %MON extforcing_qnet_del2         =   9.1403635427437E+00
(PID.TID 0000.0001) %MON extforcing_qsw_max           =   0.0000000000000E+00
(PID.TID 0000.0001) %MON extforcing_qsw_min           =   0.0000000000000E+00
(PID.TID 0000.0001) %MON extforcing_qsw_mean          =   0.0000000000000E+00
(PID.TID 0000.0001) %MON extforcing_qsw_sd            =   0.0000000000000E+00
(PID.TID 0000.0001) %MON extforcing_qsw_del2          =   0.0000000000000E+00
(PID.TID 0000.0001) %MON extforcing_empmr_max         =   0.0000000000000E+00
(PID.TID 0000.0001) %MON extforcing_empmr_min         =   0.0000000000000E+00
(PID.TID 0000.0001) %MON extforcing_empmr_mean        =   0.0000000000000E+00
(PID.TID 0000.0001) %MON extforcing_empmr_sd          =   0.0000000000000E+00
(PID.TID 0000.0001) %MON extforcing_empmr_del2        =   0.0000000000000E+00
(PID.TID 0000.0001) %MON extforcing_fu_max            =   2.7827952206135E-01
(PID.TID 0000.0001) %MON extforcing_fu_min            =  -1.8419379889965E-01
(PID.TID 0000.0001) %MON extforcing_fu_mean           =   1.6599037522725E-02
(PID.TID 0000.0001) %MON extforcing_fu_sd             =   8.9963961949749E-02
(PID.TID 0000.0001) %MON extforcing_fu_del2           =   7.3418806531090E-03
(PID.TID 0000.0001) %MON extforcing_fv_max            =   1.9782840361198E-01
(PID.TID 0000.0001) %MON extforcing_fv_min            =  -1.6723260283470E-01
(PID.TID 0000.0001) %MON extforcing_fv_mean           =  -5.9767677133721E-03
(PID.TID 0000.0001) %MON extforcing_fv_sd             =   4.5481939075567E-02
(PID.TID 0000.0001) %MON extforcing_fv_del2           =   4.3933176939132E-03
(PID.TID 0000.0001) %MON advcfl_uvel_max              =   1.9057011740814E-02
(PID.TID 0000.0001) %MON advcfl_vvel_max              =   1.3762175998281E-02
(PID.TID 0000.0001) %MON advcfl_wvel_max              =   2.1736007321770E-01
(PID.TID 0000.0001) %MON advcfl_W_hf_max              =   1.5375579104620E-01
(PID.TID 0000.0001) %MON pe_b_mean                    =   2.4311517074614E-04
(PID.TID 0000.0001) %MON ke_max                       =   1.6501960934988E-02
(PID.TID 0000.0001) %MON ke_mean                      =   1.8979823827320E-04
(PID.TID 0000.0001) %MON ke_vol                       =   1.3226782436723E+18
(PID.TID 0000.0001) %MON vort_r_min                   =  -5.3352175017426E-07
(PID.TID 0000.0001) %MON vort_r_max                   =   4.9889650297001E-07
(PID.TID 0000.0001) %MON vort_a_mean                  =  -2.5205769230522E-05
(PID.TID 0000.0001) %MON vort_a_sd                    =   7.3403006442256E-05
(PID.TID 0000.0001) %MON vort_p_mean                  =  -3.1758669352198E-05
(PID.TID 0000.0001) %MON vort_p_sd                    =   1.3126424443792E-04
(PID.TID 0000.0001) %MON surfExpan_theta_mean         =   2.3483339256534E-05
(PID.TID 0000.0001) %MON surfExpan_salt_mean          =   1.2027875434811E-07
(PID.TID 0000.0001) // =======================================================
(PID.TID 0000.0001) // End MONITOR dynamic field statistics
(PID.TID 0000.0001) // =======================================================
time,SST,SSS,fu,fv,Q,E-P,i0,i1,a,b =   2.2896E+06  3.8715E-01  3.4602E+01 -2.7507E-02 -4.2069E-02  2.5608E+02  0.0000E+00     1     2  3.8333E-01  6.1667E-01
time,fu0,fu1,fu =   2.2896E+06 -3.5633E-02 -1.4435E-02 -2.7507E-02  3.833333333333334E-01  6.166666666666667E-01
 cg2d: Sum(rhs),rhsMax =   5.51905743328973E-13  9.40876931285425E+00
(PID.TID 0000.0001)                    cg2d_init_res =    5.23264469779519E-01
(PID.TID 0000.0001)                       cg2d_iters =    24
(PID.TID 0000.0001)                         cg2d_res =    7.55483614843485E-14
(PID.TID 0000.0001) // =======================================================
(PID.TID 0000.0001) // Begin MONITOR dynamic field statistics
(PID.TID 0000.0001) // =======================================================
(PID.TID 0000.0001) %MON time_tsnumber                =                    54
(PID.TID 0000.0001) %MON time_secondsf                =   2.3328000000000E+06
(PID.TID 0000.0001) %MON dynstat_eta_max              =   1.1197980851210E+00
(PID.TID 0000.0001) %MON dynstat_eta_min              =  -1.3338886960833E+00
(PID.TID 0000.0001) %MON dynstat_eta_mean             =  -4.0981438898290E-16
(PID.TID 0000.0001) %MON dynstat_eta_sd               =   4.3743741152512E-01
(PID.TID 0000.0001) %MON dynstat_eta_del2             =   2.4728362096797E-02
(PID.TID 0000.0001) %MON dynstat_uvel_max             =   1.1347924218043E-01
(PID.TID 0000.0001) %MON dynstat_uvel_min             =  -1.8428491653111E-01
(PID.TID 0000.0001) %MON dynstat_uvel_mean            =  -1.8789049804193E-03
(PID.TID 0000.0001) %MON dynstat_uvel_sd              =   1.5162848751285E-02
(PID.TID 0000.0001) %MON dynstat_uvel_del2            =   3.3169699170771E-03
(PID.TID 0000.0001) %MON dynstat_vvel_max             =   1.3025299816814E-01
(PID.TID 0000.0001) %MON dynstat_vvel_min             =  -1.2119560264231E-01
(PID.TID 0000.0001) %MON dynstat_vvel_mean            =   1.4030029265802E-04
(PID.TID 0000.0001) %MON dynstat_vvel_sd              =   1.4014411688789E-02
(PID.TID 0000.0001) %MON dynstat_vvel_del2            =   3.4018987675536E-03
(PID.TID 0000.0001) %MON dynstat_wvel_max             =   2.0790009021993E-04
(PID.TID 0000.0001) %MON dynstat_wvel_min             =  -3.0911761465433E-04
(PID.TID 0000.0001) %MON dynstat_wvel_mean            =  -3.4749438168160E-24
(PID.TID 0000.0001) %MON dynstat_wvel_sd              =   2.2727676432883E-05
(PID.TID 0000.0001) %MON dynstat_wvel_del2            =   8.1288113554956E-06
(PID.TID 0000.0001) %MON dynstat_theta_max            =   3.0139874575576E+01
(PID.TID 0000.0001) %MON dynstat_theta_min            =  -2.0201458170841E+00
(PID.TID 0000.0001) %MON dynstat_theta_mean           =   3.5908900300453E+00
(PID.TID 0000.0001) %MON dynstat_theta_sd             =   4.3444505431009E+00
(PID.TID 0000.0001) %MON dynstat_theta_del2           =   1.3842768450073E-01
(PID.TID 0000.0001) %MON dynstat_salt_max             =   3.7402908057864E+01
(PID.TID 0000.0001) %MON dynstat_salt_min             =   2.9848268516059E+01
(PID.TID 0000.0001) %MON dynstat_salt_mean            =   3.4715975263972E+01
(PID.TID 0000.0001) %MON dynstat_salt_sd              =   2.9491686168804E-01
(PID.TID 0000.0001) %MON dynstat_salt_del2            =   2.5744798940416E-02
(PID.TID 0000.0001) %MON dynstat_sst_max              =   3.0139874575576E+01
(PID.TID 0000.0001) %MON dynstat_sst_min              =  -1.9438072408932E+00
(PID.TID 0000.0001) %MON dynstat_sst_mean             =   1.8574476260078E+01
(PID.TID 0000.0001) %MON dynstat_sst_sd               =   8.9108052129127E+00
(PID.TID 0000.0001) %MON dynstat_sst_del2             =   2.7462087576374E-01
(PID.TID 0000.0001) %MON dynstat_sss_max              =   3.7402906707069E+01
(PID.TID 0000.0001) %MON dynstat_sss_min              =   2.9848268516059E+01
(PID.TID 0000.0001) %MON dynstat_sss_mean             =   3.4841099777180E+01
(PID.TID 0000.0001) %MON dynstat_sss_sd               =   9.6612252616608E-01
(PID.TID 0000.0001) %MON dynstat_sss_del2             =   8.1027399030470E-02
(PID.TID 0000.0001) %MON extforcing_qnet_max          =   4.0344411977132E+02
(PID.TID 0000.0001) %MON extforcing_qnet_min          =  -1.7726507517497E+02
(PID.TID 0000.0001) %MON extforcing_qnet_mean         =  -1.5536070575905E+01
(PID.TID 0000.0001) %MON extforcing_qnet_sd           =   9.7701692973855E+01
(PID.TID 0000.0001) %MON extforcing_qnet_del2         =   9.1196406104074E+00
(PID.TID 0000.0001) %MON extforcing_qsw_max           =   0.0000000000000E+00
(PID.TID 0000.0001) %MON extforcing_qsw_min           =   0.0000000000000E+00
(PID.TID 0000.0001) %MON extforcing_qsw_mean          =   0.0000000000000E+00
(PID.TID 0000.0001) %MON extforcing_qsw_sd            =   0.0000000000000E+00
(PID.TID 0000.0001) %MON extforcing_qsw_del2          =   0.0000000000000E+00
(PID.TID 0000.0001) %MON extforcing_empmr_max         =   0.0000000000000E+00
(PID.TID 0000.0001) %MON extforcing_empmr_min         =   0.0000000000000E+00
(PID.TID 0000.0001) %MON extforcing_empmr_mean        =   0.0000000000000E+00
(PID.TID 0000.0001) %MON extforcing_empmr_sd          =   0.0000000000000E+00
(PID.TID 0000.0001) %MON extforcing_empmr_del2        =   0.0000000000000E+00
(PID.TID 0000.0001) %MON extforcing_fu_max            =   2.7897310107946E-01
(PID.TID 0000.0001) %MON extforcing_fu_min            =  -1.8502376079559E-01
(PID.TID 0000.0001) %MON extforcing_fu_mean           =   1.6626187630459E-02
(PID.TID 0000.0001) %MON extforcing_fu_sd             =   8.9964279229972E-02
(PID.TID 0000.0001) %MON extforcing_fu_del2           =   7.3402616632781E-03
(PID.TID 0000.0001) %MON extforcing_fv_max            =   1.9622418011228E-01
(PID.TID 0000.0001) %MON extforcing_fv_min            =  -1.6673695296049E-01
(PID.TID 0000.0001) %MON extforcing_fv_mean           =  -6.0093981667296E-03
(PID.TID 0000.0001) %MON extforcing_fv_sd             =   4.5397632699791E-02
(PID.TID 0000.0001) %MON extforcing_fv_del2           =   4.3861545599294E-03
(PID.TID 0000.0001) %MON advcfl_uvel_max              =   1.8754465752104E-02
(PID.TID 0000.0001) %MON advcfl_vvel_max              =   1.2653034268565E-02
(PID.TID 0000.0001) %MON advcfl_wvel_max              =   2.0549418583641E-01
(PID.TID 0000.0001) %MON advcfl_W_hf_max              =   1.5340667982464E-01
(PID.TID 0000.0001) %MON pe_b_mean                    =   2.4485729431445E-04
(PID.TID 0000.0001) %MON ke_max                       =   1.6380449026859E-02
(PID.TID 0000.0001) %MON ke_mean                      =   1.9423943826093E-04
(PID.TID 0000.0001) %MON ke_vol                       =   1.3226782436723E+18
(PID.TID 0000.0001) %MON vort_r_min                   =  -5.3204323407670E-07
(PID.TID 0000.0001) %MON vort_r_max                   =   4.9747461964457E-07
(PID.TID 0000.0001) %MON vort_a_mean                  =  -2.5205769244164E-05
(PID.TID 0000.0001) %MON vort_a_sd                    =   7.3403019533508E-05
(PID.TID 0000.0001) %MON vort_p_mean                  =  -3.1758669369387E-05
(PID.TID 0000.0001) %MON vort_p_sd                    =   1.3126427750896E-04
(PID.TID 0000.0001) %MON surfExpan_theta_mean         =   2.1998309814946E-05
(PID.TID 0000.0001) %MON surfExpan_salt_mean          =  -1.3046346563435E-07
(PID.TID 0000.0001) // =======================================================
(PID.TID 0000.0001) // End MONITOR dynamic field statistics
(PID.TID 0000.0001) // =======================================================
time,SST,SSS,fu,fv,Q,E-P,i0,i1,a,b =   2.3328E+06  3.6231E-01  3.4597E+01 -2.7154E-02 -4.1408E-02  2.5565E+02  0.0000E+00     1     2  4.0000E-01  6.0000E-01
time,fu0,fu1,fu =   2.3328E+06 -3.5633E-02 -1.4435E-02 -2.7154E-02  4.000000000000000E-01  6.000000000000000E-01
 cg2d: Sum(rhs),rhsMax =   7.63243634960276E-13  1.05293276707075E+01
(PID.TID 0000.0001)                    cg2d_init_res =    4.61218950104236E-01
(PID.TID 0000.0001)                       cg2d_iters =    24
(PID.TID 0000.0001)                         cg2d_res =    8.46648253275262E-14
(PID.TID 0000.0001) // =======================================================
(PID.TID 0000.0001) // Begin MONITOR dynamic field statistics
(PID.TID 0000.0001) // =======================================================
(PID.TID 0000.0001) %MON time_tsnumber                =                    55
(PID.TID 0000.0001) %MON time_secondsf                =   2.3760000000000E+06
(PID.TID 0000.0001) %MON dynstat_eta_max              =   1.2502165609816E+00
(PID.TID 0000.0001) %MON dynstat_eta_min              =  -1.3161729444485E+00
(PID.TID 0000.0001) %MON dynstat_eta_mean             =  -1.0404765791072E-15
(PID.TID 0000.0001) %MON dynstat_eta_sd               =   4.3892041711852E-01
(PID.TID 0000.0001) %MON dynstat_eta_del2             =   2.4774137885566E-02
(PID.TID 0000.0001) %MON dynstat_uvel_max             =   1.1737421366204E-01
(PID.TID 0000.0001) %MON dynstat_uvel_min             =  -1.8285784599977E-01
(PID.TID 0000.0001) %MON dynstat_uvel_mean            =  -1.7794574319507E-03
(PID.TID 0000.0001) %MON dynstat_uvel_sd              =   1.5340178527817E-02
(PID.TID 0000.0001) %MON dynstat_uvel_del2            =   3.3293394270196E-03
(PID.TID 0000.0001) %MON dynstat_vvel_max             =   1.2079276600395E-01
(PID.TID 0000.0001) %MON dynstat_vvel_min             =  -1.2123557372736E-01
(PID.TID 0000.0001) %MON dynstat_vvel_mean            =  -1.6524322971604E-04
(PID.TID 0000.0001) %MON dynstat_vvel_sd              =   1.4192254333758E-02
(PID.TID 0000.0001) %MON dynstat_vvel_del2            =   3.4062189304676E-03
(PID.TID 0000.0001) %MON dynstat_wvel_max             =   2.1478135093900E-04
(PID.TID 0000.0001) %MON dynstat_wvel_min             =  -3.0381416271846E-04
(PID.TID 0000.0001) %MON dynstat_wvel_mean            =  -2.7179106770536E-22
(PID.TID 0000.0001) %MON dynstat_wvel_sd              =   2.2762121327234E-05
(PID.TID 0000.0001) %MON dynstat_wvel_del2            =   8.0169801735850E-06
(PID.TID 0000.0001) %MON dynstat_theta_max            =   3.0189240557352E+01
(PID.TID 0000.0001) %MON dynstat_theta_min            =  -2.0211998252870E+00
(PID.TID 0000.0001) %MON dynstat_theta_mean           =   3.5906922298140E+00
(PID.TID 0000.0001) %MON dynstat_theta_sd             =   4.3436823315487E+00
(PID.TID 0000.0001) %MON dynstat_theta_del2           =   1.3830086628857E-01
(PID.TID 0000.0001) %MON dynstat_salt_max             =   3.7402527222131E+01
(PID.TID 0000.0001) %MON dynstat_salt_min             =   2.9849307670180E+01
(PID.TID 0000.0001) %MON dynstat_salt_mean            =   3.4715978742068E+01
(PID.TID 0000.0001) %MON dynstat_salt_sd              =   2.9495088059555E-01
(PID.TID 0000.0001) %MON dynstat_salt_del2            =   2.5711987901772E-02
(PID.TID 0000.0001) %MON dynstat_sst_max              =   3.0189240557352E+01
(PID.TID 0000.0001) %MON dynstat_sst_min              =  -1.9442544741254E+00
(PID.TID 0000.0001) %MON dynstat_sst_mean             =   1.8577467555920E+01
(PID.TID 0000.0001) %MON dynstat_sst_sd               =   8.9058585686684E+00
(PID.TID 0000.0001) %MON dynstat_sst_del2             =   2.7450555676120E-01
(PID.TID 0000.0001) %MON dynstat_sss_max              =   3.7402525922365E+01
(PID.TID 0000.0001) %MON dynstat_sss_min              =   2.9849307670180E+01
(PID.TID 0000.0001) %MON dynstat_sss_mean             =   3.4841386686076E+01
(PID.TID 0000.0001) %MON dynstat_sss_sd               =   9.6580146021513E-01
(PID.TID 0000.0001) %MON dynstat_sss_del2             =   8.0930963460120E-02
(PID.TID 0000.0001) %MON extforcing_qnet_max          =   4.0178457641602E+02
(PID.TID 0000.0001) %MON extforcing_qnet_min          =  -1.7714531555176E+02
(PID.TID 0000.0001) %MON extforcing_qnet_mean         =  -1.5493615992204E+01
(PID.TID 0000.0001) %MON extforcing_qnet_sd           =   9.7185485181804E+01
(PID.TID 0000.0001) %MON extforcing_qnet_del2         =   9.0993647100678E+00
(PID.TID 0000.0001) %MON extforcing_qsw_max           =   0.0000000000000E+00
(PID.TID 0000.0001) %MON extforcing_qsw_min           =   0.0000000000000E+00
(PID.TID 0000.0001) %MON extforcing_qsw_mean          =   0.0000000000000E+00
(PID.TID 0000.0001) %MON extforcing_qsw_sd            =   0.0000000000000E+00
(PID.TID 0000.0001) %MON extforcing_qsw_del2          =   0.0000000000000E+00
(PID.TID 0000.0001) %MON extforcing_empmr_max         =   0.0000000000000E+00
(PID.TID 0000.0001) %MON extforcing_empmr_min         =   0.0000000000000E+00
(PID.TID 0000.0001) %MON extforcing_empmr_mean        =   0.0000000000000E+00
(PID.TID 0000.0001) %MON extforcing_empmr_sd          =   0.0000000000000E+00
(PID.TID 0000.0001) %MON extforcing_empmr_del2        =   0.0000000000000E+00
(PID.TID 0000.0001) %MON extforcing_fu_max            =   2.7966668009758E-01
(PID.TID 0000.0001) %MON extforcing_fu_min            =  -1.8585372269154E-01
(PID.TID 0000.0001) %MON extforcing_fu_mean           =   1.6653337738194E-02
(PID.TID 0000.0001) %MON extforcing_fu_sd             =   8.9968991920605E-02
(PID.TID 0000.0001) %MON extforcing_fu_del2           =   7.3409372029193E-03
(PID.TID 0000.0001) %MON extforcing_fv_max            =   1.9461995661259E-01
(PID.TID 0000.0001) %MON extforcing_fv_min            =  -1.6624130308628E-01
(PID.TID 0000.0001) %MON extforcing_fv_mean           =  -6.0420286200872E-03
(PID.TID 0000.0001) %MON extforcing_fv_sd             =   4.5317127835513E-02
(PID.TID 0000.0001) %MON extforcing_fv_del2           =   4.3801008843757E-03
(PID.TID 0000.0001) %MON advcfl_uvel_max              =   1.9729235257768E-02
(PID.TID 0000.0001) %MON advcfl_vvel_max              =   1.1777063795195E-02
(PID.TID 0000.0001) %MON advcfl_wvel_max              =   1.8780260523919E-01
(PID.TID 0000.0001) %MON advcfl_W_hf_max              =   1.6433605815317E-01
(PID.TID 0000.0001) %MON pe_b_mean                    =   2.4652034490135E-04
(PID.TID 0000.0001) %MON ke_max                       =   1.6324975986562E-02
(PID.TID 0000.0001) %MON ke_mean                      =   1.9878706528732E-04
(PID.TID 0000.0001) %MON ke_vol                       =   1.3226782436723E+18
(PID.TID 0000.0001) %MON vort_r_min                   =  -5.2931846514767E-07
(PID.TID 0000.0001) %MON vort_r_max                   =   4.9464161913088E-07
(PID.TID 0000.0001) %MON vort_a_mean                  =  -2.5205769254588E-05
(PID.TID 0000.0001) %MON vort_a_sd                    =   7.3403035623888E-05
(PID.TID 0000.0001) %MON vort_p_mean                  =  -3.1758669382520E-05
(PID.TID 0000.0001) %MON vort_p_sd                    =   1.3126431446409E-04
(PID.TID 0000.0001) %MON surfExpan_theta_mean         =   2.0526119600261E-05
(PID.TID 0000.0001) %MON surfExpan_salt_mean          =  -3.2277526872909E-07
(PID.TID 0000.0001) // =======================================================
(PID.TID 0000.0001) // End MONITOR dynamic field statistics
(PID.TID 0000.0001) // =======================================================
time,SST,SSS,fu,fv,Q,E-P,i0,i1,a,b =   2.3760E+06  3.3747E-01  3.4592E+01 -2.6800E-02 -4.0748E-02  2.5523E+02  0.0000E+00     1     2  4.1667E-01  5.8333E-01
time,fu0,fu1,fu =   2.3760E+06 -3.5633E-02 -1.4435E-02 -2.6800E-02  4.166666666666667E-01  5.833333333333333E-01
 cg2d: Sum(rhs),rhsMax =   7.58192120198231E-13  1.15144709862056E+01
(PID.TID 0000.0001)                    cg2d_init_res =    4.14917414672329E-01
(PID.TID 0000.0001)                       cg2d_iters =    24
(PID.TID 0000.0001)                         cg2d_res =    7.75889723940898E-14
(PID.TID 0000.0001) // =======================================================
(PID.TID 0000.0001) // Begin MONITOR dynamic field statistics
(PID.TID 0000.0001) // =======================================================
(PID.TID 0000.0001) %MON time_tsnumber                =                    56
(PID.TID 0000.0001) %MON time_secondsf                =   2.4192000000000E+06
(PID.TID 0000.0001) %MON dynstat_eta_max              =   1.3648484324755E+00
(PID.TID 0000.0001) %MON dynstat_eta_min              =  -1.2973506600232E+00
(PID.TID 0000.0001) %MON dynstat_eta_mean             =  -1.0161588405116E-15
(PID.TID 0000.0001) %MON dynstat_eta_sd               =   4.4035599318350E-01
(PID.TID 0000.0001) %MON dynstat_eta_del2             =   2.4959715210117E-02
(PID.TID 0000.0001) %MON dynstat_uvel_max             =   1.2713035667559E-01
(PID.TID 0000.0001) %MON dynstat_uvel_min             =  -1.8119585417605E-01
(PID.TID 0000.0001) %MON dynstat_uvel_mean            =  -1.6660159078631E-03
(PID.TID 0000.0001) %MON dynstat_uvel_sd              =   1.5530332206253E-02
(PID.TID 0000.0001) %MON dynstat_uvel_del2            =   3.3431148403367E-03
(PID.TID 0000.0001) %MON dynstat_vvel_max             =   1.2381718646955E-01
(PID.TID 0000.0001) %MON dynstat_vvel_min             =  -1.2060238694746E-01
(PID.TID 0000.0001) %MON dynstat_vvel_mean            =  -4.4910137077777E-04
(PID.TID 0000.0001) %MON dynstat_vvel_sd              =   1.4347162955508E-02
(PID.TID 0000.0001) %MON dynstat_vvel_del2            =   3.4062061002705E-03
(PID.TID 0000.0001) %MON dynstat_wvel_max             =   2.2058212019941E-04
(PID.TID 0000.0001) %MON dynstat_wvel_min             =  -2.9647970789320E-04
(PID.TID 0000.0001) %MON dynstat_wvel_mean            =   4.8513885590413E-22
(PID.TID 0000.0001) %MON dynstat_wvel_sd              =   2.2739548577773E-05
(PID.TID 0000.0001) %MON dynstat_wvel_del2            =   7.8848503785288E-06
(PID.TID 0000.0001) %MON dynstat_theta_max            =   3.0223905374333E+01
(PID.TID 0000.0001) %MON dynstat_theta_min            =  -2.0221724702764E+00
(PID.TID 0000.0001) %MON dynstat_theta_mean           =   3.5905107965050E+00
(PID.TID 0000.0001) %MON dynstat_theta_sd             =   4.3429893914155E+00
(PID.TID 0000.0001) %MON dynstat_theta_del2           =   1.3816596252255E-01
(PID.TID 0000.0001) %MON dynstat_salt_max             =   3.7402029738573E+01
(PID.TID 0000.0001) %MON dynstat_salt_min             =   2.9850334607916E+01
(PID.TID 0000.0001) %MON dynstat_salt_mean            =   3.4715983981444E+01
(PID.TID 0000.0001) %MON dynstat_salt_sd              =   2.9499257140247E-01
(PID.TID 0000.0001) %MON dynstat_salt_del2            =   2.5686081404882E-02
(PID.TID 0000.0001) %MON dynstat_sst_max              =   3.0223905374333E+01
(PID.TID 0000.0001) %MON dynstat_sst_min              =  -1.9446700019088E+00
(PID.TID 0000.0001) %MON dynstat_sst_mean             =   1.8580697103688E+01
(PID.TID 0000.0001) %MON dynstat_sst_sd               =   8.9012773043487E+00
(PID.TID 0000.0001) %MON dynstat_sst_del2             =   2.7439781221140E-01
(PID.TID 0000.0001) %MON dynstat_sss_max              =   3.7402028492719E+01
(PID.TID 0000.0001) %MON dynstat_sss_min              =   2.9850334607916E+01
(PID.TID 0000.0001) %MON dynstat_sss_mean             =   3.4841732215109E+01
(PID.TID 0000.0001) %MON dynstat_sss_sd               =   9.6546846574618E-01
(PID.TID 0000.0001) %MON dynstat_sss_del2             =   8.0889877097342E-02
(PID.TID 0000.0001) %MON extforcing_qnet_max          =   4.0012503306071E+02
(PID.TID 0000.0001) %MON extforcing_qnet_min          =  -1.7702555592855E+02
(PID.TID 0000.0001) %MON extforcing_qnet_mean         =  -1.5451161408502E+01
(PID.TID 0000.0001) %MON extforcing_qnet_sd           =   9.6670504587360E+01
(PID.TID 0000.0001) %MON extforcing_qnet_del2         =   9.0795706899235E+00
(PID.TID 0000.0001) %MON extforcing_qsw_max           =   0.0000000000000E+00
(PID.TID 0000.0001) %MON extforcing_qsw_min           =   0.0000000000000E+00
(PID.TID 0000.0001) %MON extforcing_qsw_mean          =   0.0000000000000E+00
(PID.TID 0000.0001) %MON extforcing_qsw_sd            =   0.0000000000000E+00
(PID.TID 0000.0001) %MON extforcing_qsw_del2          =   0.0000000000000E+00
(PID.TID 0000.0001) %MON extforcing_empmr_max         =   0.0000000000000E+00
(PID.TID 0000.0001) %MON extforcing_empmr_min         =   0.0000000000000E+00
(PID.TID 0000.0001) %MON extforcing_empmr_mean        =   0.0000000000000E+00
(PID.TID 0000.0001) %MON extforcing_empmr_sd          =   0.0000000000000E+00
(PID.TID 0000.0001) %MON extforcing_empmr_del2        =   0.0000000000000E+00
(PID.TID 0000.0001) %MON extforcing_fu_max            =   2.8036025911570E-01
(PID.TID 0000.0001) %MON extforcing_fu_min            =  -1.8668368458748E-01
(PID.TID 0000.0001) %MON extforcing_fu_mean           =   1.6680487845928E-02
(PID.TID 0000.0001) %MON extforcing_fu_sd             =   8.9978099331007E-02
(PID.TID 0000.0001) %MON extforcing_fu_del2           =   7.3429087977424E-03
(PID.TID 0000.0001) %MON extforcing_fv_max            =   1.9301573311289E-01
(PID.TID 0000.0001) %MON extforcing_fv_min            =  -1.6574565321207E-01
(PID.TID 0000.0001) %MON extforcing_fv_mean           =  -6.0746590734448E-03
(PID.TID 0000.0001) %MON extforcing_fv_sd             =   4.5240444776979E-02
(PID.TID 0000.0001) %MON extforcing_fv_del2           =   4.3751579030076E-03
(PID.TID 0000.0001) %MON advcfl_uvel_max              =   2.1010555538732E-02
(PID.TID 0000.0001) %MON advcfl_vvel_max              =   1.2027846771052E-02
(PID.TID 0000.0001) %MON advcfl_wvel_max              =   1.8949834120231E-01
(PID.TID 0000.0001) %MON advcfl_W_hf_max              =   1.7533720032719E-01
(PID.TID 0000.0001) %MON pe_b_mean                    =   2.4813556916852E-04
(PID.TID 0000.0001) %MON ke_max                       =   1.6308000191415E-02
(PID.TID 0000.0001) %MON ke_mean                      =   2.0333945712199E-04
(PID.TID 0000.0001) %MON ke_vol                       =   1.3226782436723E+18
(PID.TID 0000.0001) %MON vort_r_min                   =  -5.2556432075503E-07
(PID.TID 0000.0001) %MON vort_r_max                   =   4.9041290831757E-07
(PID.TID 0000.0001) %MON vort_a_mean                  =  -2.5205769261135E-05
(PID.TID 0000.0001) %MON vort_a_sd                    =   7.3403054450490E-05
(PID.TID 0000.0001) %MON vort_p_mean                  =  -3.1758669390769E-05
(PID.TID 0000.0001) %MON vort_p_sd                    =   1.3126435388822E-04
(PID.TID 0000.0001) %MON surfExpan_theta_mean         =   1.9082319434371E-05
(PID.TID 0000.0001) %MON surfExpan_salt_mean          =  -4.5644517895361E-07
(PID.TID 0000.0001) // =======================================================
(PID.TID 0000.0001) // End MONITOR dynamic field statistics
(PID.TID 0000.0001) // =======================================================
time,SST,SSS,fu,fv,Q,E-P,i0,i1,a,b =   2.4192E+06  3.1264E-01  3.4587E+01 -2.6447E-02 -4.0088E-02  2.5481E+02  0.0000E+00     1     2  4.3333E-01  5.6667E-01
time,fu0,fu1,fu =   2.4192E+06 -3.5633E-02 -1.4435E-02 -2.6447E-02  4.333333333333333E-01  5.666666666666667E-01
 cg2d: Sum(rhs),rhsMax =   1.44068784679874E-12  1.23395341393442E+01
(PID.TID 0000.0001)                    cg2d_init_res =    3.79171770812390E-01
(PID.TID 0000.0001)                       cg2d_iters =    24
(PID.TID 0000.0001)                         cg2d_res =    7.02451136807718E-14
(PID.TID 0000.0001) // =======================================================
(PID.TID 0000.0001) // Begin MONITOR dynamic field statistics
(PID.TID 0000.0001) // =======================================================
(PID.TID 0000.0001) %MON time_tsnumber                =                    57
(PID.TID 0000.0001) %MON time_secondsf                =   2.4624000000000E+06
(PID.TID 0000.0001) %MON dynstat_eta_max              =   1.4608335675897E+00
(PID.TID 0000.0001) %MON dynstat_eta_min              =  -1.2826898560671E+00
(PID.TID 0000.0001) %MON dynstat_eta_mean             =  -1.5968978524193E-15
(PID.TID 0000.0001) %MON dynstat_eta_sd               =   4.4175969815542E-01
(PID.TID 0000.0001) %MON dynstat_eta_del2             =   2.5205416606985E-02
(PID.TID 0000.0001) %MON dynstat_uvel_max             =   1.3584788206653E-01
(PID.TID 0000.0001) %MON dynstat_uvel_min             =  -1.7930875795367E-01
(PID.TID 0000.0001) %MON dynstat_uvel_mean            =  -1.5404247310705E-03
(PID.TID 0000.0001) %MON dynstat_uvel_sd              =   1.5733832916707E-02
(PID.TID 0000.0001) %MON dynstat_uvel_del2            =   3.3585575925314E-03
(PID.TID 0000.0001) %MON dynstat_vvel_max             =   1.2645596278383E-01
(PID.TID 0000.0001) %MON dynstat_vvel_min             =  -1.1931513071834E-01
(PID.TID 0000.0001) %MON dynstat_vvel_mean            =  -7.0883548530313E-04
(PID.TID 0000.0001) %MON dynstat_vvel_sd              =   1.4472795110308E-02
(PID.TID 0000.0001) %MON dynstat_vvel_del2            =   3.4016891531098E-03
(PID.TID 0000.0001) %MON dynstat_wvel_max             =   2.2518933760692E-04
(PID.TID 0000.0001) %MON dynstat_wvel_min             =  -2.8731694854555E-04
(PID.TID 0000.0001) %MON dynstat_wvel_mean            =   5.2502616479815E-23
(PID.TID 0000.0001) %MON dynstat_wvel_sd              =   2.2664354479548E-05
(PID.TID 0000.0001) %MON dynstat_wvel_del2            =   7.7461287560817E-06
(PID.TID 0000.0001) %MON dynstat_theta_max            =   3.0243263592549E+01
(PID.TID 0000.0001) %MON dynstat_theta_min            =  -2.0230592005612E+00
(PID.TID 0000.0001) %MON dynstat_theta_mean           =   3.5903452569071E+00
(PID.TID 0000.0001) %MON dynstat_theta_sd             =   4.3423742733914E+00
(PID.TID 0000.0001) %MON dynstat_theta_del2           =   1.3808346120910E-01
(PID.TID 0000.0001) %MON dynstat_salt_max             =   3.7401420003061E+01
(PID.TID 0000.0001) %MON dynstat_salt_min             =   2.9851365991768E+01
(PID.TID 0000.0001) %MON dynstat_salt_mean            =   3.4715990316880E+01
(PID.TID 0000.0001) %MON dynstat_salt_sd              =   2.9504025164469E-01
(PID.TID 0000.0001) %MON dynstat_salt_del2            =   2.5667459081021E-02
(PID.TID 0000.0001) %MON dynstat_sst_max              =   3.0243263592549E+01
(PID.TID 0000.0001) %MON dynstat_sst_min              =  -1.9450200342224E+00
(PID.TID 0000.0001) %MON dynstat_sst_mean             =   1.8584044337961E+01
(PID.TID 0000.0001) %MON dynstat_sst_sd               =   8.8970688590523E+00
(PID.TID 0000.0001) %MON dynstat_sst_del2             =   2.7460550660889E-01
(PID.TID 0000.0001) %MON dynstat_sss_max              =   3.7401418810562E+01
(PID.TID 0000.0001) %MON dynstat_sss_min              =   2.9851365991768E+01
(PID.TID 0000.0001) %MON dynstat_sss_mean             =   3.4842093549960E+01
(PID.TID 0000.0001) %MON dynstat_sss_sd               =   9.6512348666273E-01
(PID.TID 0000.0001) %MON dynstat_sss_del2             =   8.0817363510429E-02
(PID.TID 0000.0001) %MON extforcing_qnet_max          =   3.9846548970540E+02
(PID.TID 0000.0001) %MON extforcing_qnet_min          =  -1.7690579630534E+02
(PID.TID 0000.0001) %MON extforcing_qnet_mean         =  -1.5408706824800E+01
(PID.TID 0000.0001) %MON extforcing_qnet_sd           =   9.6156770907790E+01
(PID.TID 0000.0001) %MON extforcing_qnet_del2         =   9.0600739083810E+00
(PID.TID 0000.0001) %MON extforcing_qsw_max           =   0.0000000000000E+00
(PID.TID 0000.0001) %MON extforcing_qsw_min           =   0.0000000000000E+00
(PID.TID 0000.0001) %MON extforcing_qsw_mean          =   0.0000000000000E+00
(PID.TID 0000.0001) %MON extforcing_qsw_sd            =   0.0000000000000E+00
(PID.TID 0000.0001) %MON extforcing_qsw_del2          =   0.0000000000000E+00
(PID.TID 0000.0001) %MON extforcing_empmr_max         =   0.0000000000000E+00
(PID.TID 0000.0001) %MON extforcing_empmr_min         =   0.0000000000000E+00
(PID.TID 0000.0001) %MON extforcing_empmr_mean        =   0.0000000000000E+00
(PID.TID 0000.0001) %MON extforcing_empmr_sd          =   0.0000000000000E+00
(PID.TID 0000.0001) %MON extforcing_empmr_del2        =   0.0000000000000E+00
(PID.TID 0000.0001) %MON extforcing_fu_max            =   2.8105383813381E-01
(PID.TID 0000.0001) %MON extforcing_fu_min            =  -1.8751364648342E-01
(PID.TID 0000.0001) %MON extforcing_fu_mean           =   1.6707637953663E-02
(PID.TID 0000.0001) %MON extforcing_fu_sd             =   8.9991600126903E-02
(PID.TID 0000.0001) %MON extforcing_fu_del2           =   7.3455695590128E-03
(PID.TID 0000.0001) %MON extforcing_fv_max            =   1.9141846299171E-01
(PID.TID 0000.0001) %MON extforcing_fv_min            =  -1.6525000333786E-01
(PID.TID 0000.0001) %MON extforcing_fv_mean           =  -6.1072895268024E-03
(PID.TID 0000.0001) %MON extforcing_fv_sd             =   4.5167602989543E-02
(PID.TID 0000.0001) %MON extforcing_fv_del2           =   4.3728917690527E-03
(PID.TID 0000.0001) %MON advcfl_uvel_max              =   2.2451281862297E-02
(PID.TID 0000.0001) %MON advcfl_vvel_max              =   1.2284182729543E-02
(PID.TID 0000.0001) %MON advcfl_wvel_max              =   1.9690695921681E-01
(PID.TID 0000.0001) %MON advcfl_W_hf_max              =   1.8221544086114E-01
(PID.TID 0000.0001) %MON pe_b_mean                    =   2.4972003393344E-04
(PID.TID 0000.0001) %MON ke_max                       =   1.6280436669288E-02
(PID.TID 0000.0001) %MON ke_mean                      =   2.0780750353155E-04
(PID.TID 0000.0001) %MON ke_vol                       =   1.3226782436723E+18
(PID.TID 0000.0001) %MON vort_r_min                   =  -5.2100395692500E-07
(PID.TID 0000.0001) %MON vort_r_max                   =   4.8481737987727E-07
(PID.TID 0000.0001) %MON vort_a_mean                  =  -2.5205769263406E-05
(PID.TID 0000.0001) %MON vort_a_sd                    =   7.3403075704075E-05
(PID.TID 0000.0001) %MON vort_p_mean                  =  -3.1758669393631E-05
(PID.TID 0000.0001) %MON vort_p_sd                    =   1.3126439445598E-04
(PID.TID 0000.0001) %MON surfExpan_theta_mean         =   1.7679799444673E-05
(PID.TID 0000.0001) %MON surfExpan_salt_mean          =  -5.3358785880346E-07
(PID.TID 0000.0001) // =======================================================
(PID.TID 0000.0001) // End MONITOR dynamic field statistics
(PID.TID 0000.0001) // =======================================================
time,SST,SSS,fu,fv,Q,E-P,i0,i1,a,b =   2.4624E+06  2.8780E-01  3.4582E+01 -2.6094E-02 -3.9427E-02  2.5439E+02  0.0000E+00     1     2  4.5000E-01  5.5000E-01
time,fu0,fu1,fu =   2.4624E+06 -3.5633E-02 -1.4435E-02 -2.6094E-02  4.500000000000000E-01  5.500000000000000E-01
 cg2d: Sum(rhs),rhsMax =   2.03893846251191E-12  1.29859652914571E+01
(PID.TID 0000.0001)                    cg2d_init_res =    3.50847693661953E-01
(PID.TID 0000.0001)                       cg2d_iters =    24
(PID.TID 0000.0001)                         cg2d_res =    6.35253409351177E-14
(PID.TID 0000.0001) // =======================================================
(PID.TID 0000.0001) // Begin MONITOR dynamic field statistics
(PID.TID 0000.0001) // =======================================================
(PID.TID 0000.0001) %MON time_tsnumber                =                    58
(PID.TID 0000.0001) %MON time_secondsf                =   2.5056000000000E+06
(PID.TID 0000.0001) %MON dynstat_eta_max              =   1.5360193624146E+00
(PID.TID 0000.0001) %MON dynstat_eta_min              =  -1.2793713491927E+00
(PID.TID 0000.0001) %MON dynstat_eta_mean             =  -1.9253535925483E-15
(PID.TID 0000.0001) %MON dynstat_eta_sd               =   4.4313232183513E-01
(PID.TID 0000.0001) %MON dynstat_eta_del2             =   2.5451940872346E-02
(PID.TID 0000.0001) %MON dynstat_uvel_max             =   1.4338631461122E-01
(PID.TID 0000.0001) %MON dynstat_uvel_min             =  -1.7720741703453E-01
(PID.TID 0000.0001) %MON dynstat_uvel_mean            =  -1.4045747385644E-03
(PID.TID 0000.0001) %MON dynstat_uvel_sd              =   1.5949809306622E-02
(PID.TID 0000.0001) %MON dynstat_uvel_del2            =   3.3759867062744E-03
(PID.TID 0000.0001) %MON dynstat_vvel_max             =   1.2870379105801E-01
(PID.TID 0000.0001) %MON dynstat_vvel_min             =  -1.1740503351696E-01
(PID.TID 0000.0001) %MON dynstat_vvel_mean            =  -9.4256471409997E-04
(PID.TID 0000.0001) %MON dynstat_vvel_sd              =   1.4565646377106E-02
(PID.TID 0000.0001) %MON dynstat_vvel_del2            =   3.3948915658979E-03
(PID.TID 0000.0001) %MON dynstat_wvel_max             =   2.2852442471656E-04
(PID.TID 0000.0001) %MON dynstat_wvel_min             =  -2.7653408160645E-04
(PID.TID 0000.0001) %MON dynstat_wvel_mean            =  -7.6141409203317E-22
(PID.TID 0000.0001) %MON dynstat_wvel_sd              =   2.2544996886137E-05
(PID.TID 0000.0001) %MON dynstat_wvel_del2            =   7.6168955990499E-06
(PID.TID 0000.0001) %MON dynstat_theta_max            =   3.0246954838633E+01
(PID.TID 0000.0001) %MON dynstat_theta_min            =  -2.0238620386214E+00
(PID.TID 0000.0001) %MON dynstat_theta_mean           =   3.5901950533466E+00
(PID.TID 0000.0001) %MON dynstat_theta_sd             =   4.3418379428119E+00
(PID.TID 0000.0001) %MON dynstat_theta_del2           =   1.3794097203102E-01
(PID.TID 0000.0001) %MON dynstat_salt_max             =   3.7400706937664E+01
(PID.TID 0000.0001) %MON dynstat_salt_min             =   2.9852418113895E+01
(PID.TID 0000.0001) %MON dynstat_salt_mean            =   3.4715997125970E+01
(PID.TID 0000.0001) %MON dynstat_salt_sd              =   2.9509259513809E-01
(PID.TID 0000.0001) %MON dynstat_salt_del2            =   2.5648525924037E-02
(PID.TID 0000.0001) %MON dynstat_sst_max              =   3.0246954838633E+01
(PID.TID 0000.0001) %MON dynstat_sst_min              =  -1.9452770960352E+00
(PID.TID 0000.0001) %MON dynstat_sst_mean             =   1.8587506960379E+01
(PID.TID 0000.0001) %MON dynstat_sst_sd               =   8.8933210878733E+00
(PID.TID 0000.0001) %MON dynstat_sst_del2             =   2.7410968588965E-01
(PID.TID 0000.0001) %MON dynstat_sss_max              =   3.7400705794627E+01
(PID.TID 0000.0001) %MON dynstat_sss_min              =   2.9852418113895E+01
(PID.TID 0000.0001) %MON dynstat_sss_mean             =   3.4842472126910E+01
(PID.TID 0000.0001) %MON dynstat_sss_sd               =   9.6477464364357E-01
(PID.TID 0000.0001) %MON dynstat_sss_del2             =   8.0769003306905E-02
(PID.TID 0000.0001) %MON extforcing_qnet_max          =   3.9680594635010E+02
(PID.TID 0000.0001) %MON extforcing_qnet_min          =  -1.7678603668213E+02
(PID.TID 0000.0001) %MON extforcing_qnet_mean         =  -1.5366252241099E+01
(PID.TID 0000.0001) %MON extforcing_qnet_sd           =   9.5644304235738E+01
(PID.TID 0000.0001) %MON extforcing_qnet_del2         =   9.0407124510359E+00
(PID.TID 0000.0001) %MON extforcing_qsw_max           =   0.0000000000000E+00
(PID.TID 0000.0001) %MON extforcing_qsw_min           =   0.0000000000000E+00
(PID.TID 0000.0001) %MON extforcing_qsw_mean          =   0.0000000000000E+00
(PID.TID 0000.0001) %MON extforcing_qsw_sd            =   0.0000000000000E+00
(PID.TID 0000.0001) %MON extforcing_qsw_del2          =   0.0000000000000E+00
(PID.TID 0000.0001) %MON extforcing_empmr_max         =   0.0000000000000E+00
(PID.TID 0000.0001) %MON extforcing_empmr_min         =   0.0000000000000E+00
(PID.TID 0000.0001) %MON extforcing_empmr_mean        =   0.0000000000000E+00
(PID.TID 0000.0001) %MON extforcing_empmr_sd          =   0.0000000000000E+00
(PID.TID 0000.0001) %MON extforcing_empmr_del2        =   0.0000000000000E+00
(PID.TID 0000.0001) %MON extforcing_fu_max            =   2.8174741715193E-01
(PID.TID 0000.0001) %MON extforcing_fu_min            =  -1.8834360837936E-01
(PID.TID 0000.0001) %MON extforcing_fu_mean           =   1.6734788061397E-02
(PID.TID 0000.0001) %MON extforcing_fu_sd             =   9.0009492331361E-02
(PID.TID 0000.0001) %MON extforcing_fu_del2           =   7.3494886358794E-03
(PID.TID 0000.0001) %MON extforcing_fv_max            =   1.9086770266294E-01
(PID.TID 0000.0001) %MON extforcing_fv_min            =  -1.6475435346365E-01
(PID.TID 0000.0001) %MON extforcing_fv_mean           =  -6.1399199801600E-03
(PID.TID 0000.0001) %MON extforcing_fv_sd             =   4.5098621086089E-02
(PID.TID 0000.0001) %MON extforcing_fv_del2           =   4.3724954550736E-03
(PID.TID 0000.0001) %MON advcfl_uvel_max              =   2.3697142094243E-02
(PID.TID 0000.0001) %MON advcfl_vvel_max              =   1.2502541220965E-02
(PID.TID 0000.0001) %MON advcfl_wvel_max              =   1.9846199872721E-01
(PID.TID 0000.0001) %MON advcfl_W_hf_max              =   1.8367552370783E-01
(PID.TID 0000.0001) %MON pe_b_mean                    =   2.5127429141161E-04
(PID.TID 0000.0001) %MON ke_max                       =   1.6243618276839E-02
(PID.TID 0000.0001) %MON ke_mean                      =   2.1211833459292E-04
(PID.TID 0000.0001) %MON ke_vol                       =   1.3226782436723E+18
(PID.TID 0000.0001) %MON vort_r_min                   =  -5.1586710766801E-07
(PID.TID 0000.0001) %MON vort_r_max                   =   4.7789610206234E-07
(PID.TID 0000.0001) %MON vort_a_mean                  =  -2.5205769261240E-05
(PID.TID 0000.0001) %MON vort_a_sd                    =   7.3403099048099E-05
(PID.TID 0000.0001) %MON vort_p_mean                  =  -3.1758669390902E-05
(PID.TID 0000.0001) %MON vort_p_sd                    =   1.3126443494286E-04
(PID.TID 0000.0001) %MON surfExpan_theta_mean         =   1.6328230278496E-05
(PID.TID 0000.0001) %MON surfExpan_salt_mean          =  -5.5877118131103E-07
(PID.TID 0000.0001) // =======================================================
(PID.TID 0000.0001) // End MONITOR dynamic field statistics
(PID.TID 0000.0001) // =======================================================
time,SST,SSS,fu,fv,Q,E-P,i0,i1,a,b =   2.5056E+06  2.6296E-01  3.4578E+01 -2.5740E-02 -3.8767E-02  2.5397E+02  0.0000E+00     1     2  4.6667E-01  5.3333E-01
time,fu0,fu1,fu =   2.5056E+06 -3.5633E-02 -1.4435E-02 -2.5740E-02  4.666666666666667E-01  5.333333333333333E-01
 cg2d: Sum(rhs),rhsMax =   2.03490696515374E-12  1.34416460412702E+01
(PID.TID 0000.0001)                    cg2d_init_res =    3.28168825570658E-01
(PID.TID 0000.0001)                       cg2d_iters =    24
(PID.TID 0000.0001)                         cg2d_res =    5.74274473896194E-14
(PID.TID 0000.0001) // =======================================================
(PID.TID 0000.0001) // Begin MONITOR dynamic field statistics
(PID.TID 0000.0001) // =======================================================
(PID.TID 0000.0001) %MON time_tsnumber                =                    59
(PID.TID 0000.0001) %MON time_secondsf                =   2.5488000000000E+06
(PID.TID 0000.0001) %MON dynstat_eta_max              =   1.5889982471423E+00
(PID.TID 0000.0001) %MON dynstat_eta_min              =  -1.2751789236413E+00
(PID.TID 0000.0001) %MON dynstat_eta_mean             =  -2.0734392104726E-15
(PID.TID 0000.0001) %MON dynstat_eta_sd               =   4.4446028858841E-01
(PID.TID 0000.0001) %MON dynstat_eta_del2             =   2.5657201295484E-02
(PID.TID 0000.0001) %MON dynstat_uvel_max             =   1.4963207496860E-01
(PID.TID 0000.0001) %MON dynstat_uvel_min             =  -1.7490333235285E-01
(PID.TID 0000.0001) %MON dynstat_uvel_mean            =  -1.2603275528323E-03
(PID.TID 0000.0001) %MON dynstat_uvel_sd              =   1.6175844015733E-02
(PID.TID 0000.0001) %MON dynstat_uvel_del2            =   3.3934404793331E-03
(PID.TID 0000.0001) %MON dynstat_vvel_max             =   1.3055793663231E-01
(PID.TID 0000.0001) %MON dynstat_vvel_min             =  -1.1784243048847E-01
(PID.TID 0000.0001) %MON dynstat_vvel_mean            =  -1.1489648131888E-03
(PID.TID 0000.0001) %MON dynstat_vvel_sd              =   1.4625159387294E-02
(PID.TID 0000.0001) %MON dynstat_vvel_del2            =   3.3907566380541E-03
(PID.TID 0000.0001) %MON dynstat_wvel_max             =   2.3054417171816E-04
(PID.TID 0000.0001) %MON dynstat_wvel_min             =  -2.6434197550533E-04
(PID.TID 0000.0001) %MON dynstat_wvel_mean            =  -6.3920616691109E-22
(PID.TID 0000.0001) %MON dynstat_wvel_sd              =   2.2393592641902E-05
(PID.TID 0000.0001) %MON dynstat_wvel_del2            =   7.5033053987600E-06
(PID.TID 0000.0001) %MON dynstat_theta_max            =   3.0234872396726E+01
(PID.TID 0000.0001) %MON dynstat_theta_min            =  -2.0245878938404E+00
(PID.TID 0000.0001) %MON dynstat_theta_mean           =   3.5900595329338E+00
(PID.TID 0000.0001) %MON dynstat_theta_sd             =   4.3413804849580E+00
(PID.TID 0000.0001) %MON dynstat_theta_del2           =   1.3783654235588E-01
(PID.TID 0000.0001) %MON dynstat_salt_max             =   3.7399903546821E+01
(PID.TID 0000.0001) %MON dynstat_salt_min             =   2.9853506409829E+01
(PID.TID 0000.0001) %MON dynstat_salt_mean            =   3.4716003853361E+01
(PID.TID 0000.0001) %MON dynstat_salt_sd              =   2.9514831212144E-01
(PID.TID 0000.0001) %MON dynstat_salt_del2            =   2.5627959271966E-02
(PID.TID 0000.0001) %MON dynstat_sst_max              =   3.0234872396726E+01
(PID.TID 0000.0001) %MON dynstat_sst_min              =  -1.9454202016337E+00
(PID.TID 0000.0001) %MON dynstat_sst_mean             =   1.8590880505317E+01
(PID.TID 0000.0001) %MON dynstat_sst_sd               =   8.8904075982411E+00
(PID.TID 0000.0001) %MON dynstat_sst_del2             =   2.7399008999460E-01
(PID.TID 0000.0001) %MON dynstat_sss_max              =   3.7399902446308E+01
(PID.TID 0000.0001) %MON dynstat_sss_min              =   2.9853506409829E+01
(PID.TID 0000.0001) %MON dynstat_sss_mean             =   3.4842828159666E+01
(PID.TID 0000.0001) %MON dynstat_sss_sd               =   9.6442895608050E-01
(PID.TID 0000.0001) %MON dynstat_sss_del2             =   8.0695791643405E-02
(PID.TID 0000.0001) %MON extforcing_qnet_max          =   3.9514640299479E+02
(PID.TID 0000.0001) %MON extforcing_qnet_min          =  -1.7666627705892E+02
(PID.TID 0000.0001) %MON extforcing_qnet_mean         =  -1.5323797657397E+01
(PID.TID 0000.0001) %MON extforcing_qnet_sd           =   9.5133125046695E+01
(PID.TID 0000.0001) %MON extforcing_qnet_del2         =   9.0218341996745E+00
(PID.TID 0000.0001) %MON extforcing_qsw_max           =   0.0000000000000E+00
(PID.TID 0000.0001) %MON extforcing_qsw_min           =   0.0000000000000E+00
(PID.TID 0000.0001) %MON extforcing_qsw_mean          =   0.0000000000000E+00
(PID.TID 0000.0001) %MON extforcing_qsw_sd            =   0.0000000000000E+00
(PID.TID 0000.0001) %MON extforcing_qsw_del2          =   0.0000000000000E+00
(PID.TID 0000.0001) %MON extforcing_empmr_max         =   0.0000000000000E+00
(PID.TID 0000.0001) %MON extforcing_empmr_min         =   0.0000000000000E+00
(PID.TID 0000.0001) %MON extforcing_empmr_mean        =   0.0000000000000E+00
(PID.TID 0000.0001) %MON extforcing_empmr_sd          =   0.0000000000000E+00
(PID.TID 0000.0001) %MON extforcing_empmr_del2        =   0.0000000000000E+00
(PID.TID 0000.0001) %MON extforcing_fu_max            =   2.8244099617004E-01
(PID.TID 0000.0001) %MON extforcing_fu_min            =  -1.8917357027531E-01
(PID.TID 0000.0001) %MON extforcing_fu_mean           =   1.6761938169132E-02
(PID.TID 0000.0001) %MON extforcing_fu_sd             =   9.0031773326239E-02
(PID.TID 0000.0001) %MON extforcing_fu_del2           =   7.3541020348201E-03
(PID.TID 0000.0001) %MON extforcing_fv_max            =   1.9031694233418E-01
(PID.TID 0000.0001) %MON extforcing_fv_min            =  -1.6425870358944E-01
(PID.TID 0000.0001) %MON extforcing_fv_mean           =  -6.1725504335176E-03
(PID.TID 0000.0001) %MON extforcing_fv_sd             =   4.5033516804219E-02
(PID.TID 0000.0001) %MON extforcing_fv_del2           =   4.3733468713688E-03
(PID.TID 0000.0001) %MON advcfl_uvel_max              =   2.4729365225696E-02
(PID.TID 0000.0001) %MON advcfl_vvel_max              =   1.2682656595047E-02
(PID.TID 0000.0001) %MON advcfl_wvel_max              =   1.9399685144362E-01
(PID.TID 0000.0001) %MON advcfl_W_hf_max              =   1.7956307814205E-01
(PID.TID 0000.0001) %MON pe_b_mean                    =   2.5278257178682E-04
(PID.TID 0000.0001) %MON ke_max                       =   1.6198873722582E-02
(PID.TID 0000.0001) %MON ke_mean                      =   2.1621643419132E-04
(PID.TID 0000.0001) %MON ke_vol                       =   1.3226782436723E+18
(PID.TID 0000.0001) %MON vort_r_min                   =  -5.1038914639864E-07
(PID.TID 0000.0001) %MON vort_r_max                   =   4.6970062207743E-07
(PID.TID 0000.0001) %MON vort_a_mean                  =  -2.5205769254698E-05
(PID.TID 0000.0001) %MON vort_a_sd                    =   7.3403124136062E-05
(PID.TID 0000.0001) %MON vort_p_mean                  =  -3.1758669382659E-05
(PID.TID 0000.0001) %MON vort_p_sd                    =   1.3126447434660E-04
(PID.TID 0000.0001) %MON surfExpan_theta_mean         =   1.5028694261259E-05
(PID.TID 0000.0001) %MON surfExpan_salt_mean          =  -5.3893844777957E-07
(PID.TID 0000.0001) // =======================================================
(PID.TID 0000.0001) // End MONITOR dynamic field statistics
(PID.TID 0000.0001) // =======================================================
time,SST,SSS,fu,fv,Q,E-P,i0,i1,a,b =   2.5488E+06  2.3812E-01  3.4573E+01 -2.5387E-02 -3.8106E-02  2.5355E+02  0.0000E+00     1     2  4.8333E-01  5.1667E-01
time,fu0,fu1,fu =   2.5488E+06 -3.5633E-02 -1.4435E-02 -2.5387E-02  4.833333333333333E-01  5.166666666666666E-01
 cg2d: Sum(rhs),rhsMax =   2.45849868241166E-12  1.37009638952054E+01
(PID.TID 0000.0001)                    cg2d_init_res =    3.10332419281436E-01
(PID.TID 0000.0001)                       cg2d_iters =    24
(PID.TID 0000.0001)                         cg2d_res =    5.18420582387683E-14
(PID.TID 0000.0001) // =======================================================
(PID.TID 0000.0001) // Begin MONITOR dynamic field statistics
(PID.TID 0000.0001) // =======================================================
(PID.TID 0000.0001) %MON time_tsnumber                =                    60
(PID.TID 0000.0001) %MON time_secondsf                =   2.5920000000000E+06
(PID.TID 0000.0001) %MON dynstat_eta_max              =   1.6191166317691E+00
(PID.TID 0000.0001) %MON dynstat_eta_min              =  -1.2705356967496E+00
(PID.TID 0000.0001) %MON dynstat_eta_mean             =  -2.3470756783762E-15
(PID.TID 0000.0001) %MON dynstat_eta_sd               =   4.4571843405768E-01
(PID.TID 0000.0001) %MON dynstat_eta_del2             =   2.5819487780169E-02
(PID.TID 0000.0001) %MON dynstat_uvel_max             =   1.5450058274182E-01
(PID.TID 0000.0001) %MON dynstat_uvel_min             =  -1.7240822742603E-01
(PID.TID 0000.0001) %MON dynstat_uvel_mean            =  -1.1094812199013E-03
(PID.TID 0000.0001) %MON dynstat_uvel_sd              =   1.6407986682640E-02
(PID.TID 0000.0001) %MON dynstat_uvel_del2            =   3.4127403779412E-03
(PID.TID 0000.0001) %MON dynstat_vvel_max             =   1.3201781081553E-01
(PID.TID 0000.0001) %MON dynstat_vvel_min             =  -1.1867845965593E-01
(PID.TID 0000.0001) %MON dynstat_vvel_mean            =  -1.3272645328411E-03
(PID.TID 0000.0001) %MON dynstat_vvel_sd              =   1.4653549592558E-02
(PID.TID 0000.0001) %MON dynstat_vvel_del2            =   3.3890174681713E-03
(PID.TID 0000.0001) %MON dynstat_wvel_max             =   2.3124007900656E-04
(PID.TID 0000.0001) %MON dynstat_wvel_min             =  -2.5095342796990E-04
(PID.TID 0000.0001) %MON dynstat_wvel_mean            =   8.8815205942470E-22
(PID.TID 0000.0001) %MON dynstat_wvel_sd              =   2.2224750092460E-05
(PID.TID 0000.0001) %MON dynstat_wvel_del2            =   7.4062217146368E-06
(PID.TID 0000.0001) %MON dynstat_theta_max            =   3.0207174332190E+01
(PID.TID 0000.0001) %MON dynstat_theta_min            =  -2.0252468319351E+00
(PID.TID 0000.0001) %MON dynstat_theta_mean           =   3.5899381236135E+00
(PID.TID 0000.0001) %MON dynstat_theta_sd             =   4.3409988623378E+00
(PID.TID 0000.0001) %MON dynstat_theta_del2           =   1.3774479422839E-01
(PID.TID 0000.0001) %MON dynstat_salt_max             =   3.7399026390052E+01
(PID.TID 0000.0001) %MON dynstat_salt_min             =   2.9854644872200E+01
(PID.TID 0000.0001) %MON dynstat_salt_mean            =   3.4716010040353E+01
(PID.TID 0000.0001) %MON dynstat_salt_sd              =   2.9520574661727E-01
(PID.TID 0000.0001) %MON dynstat_salt_del2            =   2.5609459400581E-02
(PID.TID 0000.0001) %MON dynstat_sst_max              =   3.0207174332190E+01
(PID.TID 0000.0001) %MON dynstat_sst_min              =  -1.9454342356240E+00
(PID.TID 0000.0001) %MON dynstat_sst_mean             =   1.8594331057907E+01
(PID.TID 0000.0001) %MON dynstat_sst_sd               =   8.8880585099151E+00
(PID.TID 0000.0001) %MON dynstat_sst_del2             =   2.7393051593014E-01
(PID.TID 0000.0001) %MON dynstat_sss_max              =   3.7399025322430E+01
(PID.TID 0000.0001) %MON dynstat_sss_min              =   2.9854644872200E+01
(PID.TID 0000.0001) %MON dynstat_sss_mean             =   3.4843184822887E+01
(PID.TID 0000.0001) %MON dynstat_sss_sd               =   9.6410174342309E-01
(PID.TID 0000.0001) %MON dynstat_sss_del2             =   8.0615433456832E-02
(PID.TID 0000.0001) %MON extforcing_qnet_max          =   3.9348685963949E+02
(PID.TID 0000.0001) %MON extforcing_qnet_min          =  -1.7654651743571E+02
(PID.TID 0000.0001) %MON extforcing_qnet_mean         =  -1.5281343073695E+01
(PID.TID 0000.0001) %MON extforcing_qnet_sd           =   9.4623254206609E+01
(PID.TID 0000.0001) %MON extforcing_qnet_del2         =   9.0032210832558E+00
(PID.TID 0000.0001) %MON extforcing_qsw_max           =   0.0000000000000E+00
(PID.TID 0000.0001) %MON extforcing_qsw_min           =   0.0000000000000E+00
(PID.TID 0000.0001) %MON extforcing_qsw_mean          =   0.0000000000000E+00
(PID.TID 0000.0001) %MON extforcing_qsw_sd            =   0.0000000000000E+00
(PID.TID 0000.0001) %MON extforcing_qsw_del2          =   0.0000000000000E+00
(PID.TID 0000.0001) %MON extforcing_empmr_max         =   0.0000000000000E+00
(PID.TID 0000.0001) %MON extforcing_empmr_min         =   0.0000000000000E+00
(PID.TID 0000.0001) %MON extforcing_empmr_mean        =   0.0000000000000E+00
(PID.TID 0000.0001) %MON extforcing_empmr_sd          =   0.0000000000000E+00
(PID.TID 0000.0001) %MON extforcing_empmr_del2        =   0.0000000000000E+00
(PID.TID 0000.0001) %MON extforcing_fu_max            =   2.8313457518816E-01
(PID.TID 0000.0001) %MON extforcing_fu_min            =  -1.9000353217125E-01
(PID.TID 0000.0001) %MON extforcing_fu_mean           =   1.6789088276866E-02
(PID.TID 0000.0001) %MON extforcing_fu_sd             =   9.0058439854099E-02
(PID.TID 0000.0001) %MON extforcing_fu_del2           =   7.3595005631527E-03
(PID.TID 0000.0001) %MON extforcing_fv_max            =   1.8976618200541E-01
(PID.TID 0000.0001) %MON extforcing_fv_min            =  -1.6376305371523E-01
(PID.TID 0000.0001) %MON extforcing_fv_mean           =  -6.2051808868751E-03
(PID.TID 0000.0001) %MON extforcing_fv_sd             =   4.4972306984282E-02
(PID.TID 0000.0001) %MON extforcing_fv_del2           =   4.3754632929244E-03
(PID.TID 0000.0001) %MON advcfl_uvel_max              =   2.5533972839760E-02
(PID.TID 0000.0001) %MON advcfl_vvel_max              =   1.2824471665164E-02
(PID.TID 0000.0001) %MON advcfl_wvel_max              =   1.8355639432718E-01
(PID.TID 0000.0001) %MON advcfl_W_hf_max              =   1.6991948503158E-01
(PID.TID 0000.0001) %MON pe_b_mean                    =   2.5421571393156E-04
(PID.TID 0000.0001) %MON ke_max                       =   1.6147431850776E-02
(PID.TID 0000.0001) %MON ke_mean                      =   2.2006189946711E-04
(PID.TID 0000.0001) %MON ke_vol                       =   1.3226782436723E+18
(PID.TID 0000.0001) %MON vort_r_min                   =  -5.0480812391026E-07
(PID.TID 0000.0001) %MON vort_r_max                   =   4.6029107241652E-07
(PID.TID 0000.0001) %MON vort_a_mean                  =  -2.5205769244111E-05
(PID.TID 0000.0001) %MON vort_a_sd                    =   7.3403150621641E-05
(PID.TID 0000.0001) %MON vort_p_mean                  =  -3.1758669369319E-05
(PID.TID 0000.0001) %MON vort_p_sd                    =   1.3126451174069E-04
(PID.TID 0000.0001) %MON surfExpan_theta_mean         =   1.3783653193138E-05
(PID.TID 0000.0001) %MON surfExpan_salt_mean          =  -4.8170034861917E-07
(PID.TID 0000.0001) // =======================================================
(PID.TID 0000.0001) // End MONITOR dynamic field statistics
(PID.TID 0000.0001) // =======================================================
time,SST,SSS,fu,fv,Q,E-P,i0,i1,a,b =   2.5920E+06  2.1328E-01  3.4568E+01 -2.5034E-02 -3.7446E-02  2.5313E+02  0.0000E+00     1     2  5.0000E-01  5.0000E-01
time,fu0,fu1,fu =   2.5920E+06 -3.5633E-02 -1.4435E-02 -2.5034E-02  5.000000000000000E-01  5.000000000000000E-01
 cg2d: Sum(rhs),rhsMax =   2.61999449913120E-12  1.37646537675297E+01
(PID.TID 0000.0001)                    cg2d_init_res =    2.97288738328770E-01
(PID.TID 0000.0001)                       cg2d_iters =    24
(PID.TID 0000.0001)                         cg2d_res =    4.78616742345241E-14
(PID.TID 0000.0001) // =======================================================
(PID.TID 0000.0001) // Begin MONITOR dynamic field statistics
(PID.TID 0000.0001) // =======================================================
(PID.TID 0000.0001) %MON time_tsnumber                =                    61
(PID.TID 0000.0001) %MON time_secondsf                =   2.6352000000000E+06
(PID.TID 0000.0001) %MON dynstat_eta_max              =   1.6264571417218E+00
(PID.TID 0000.0001) %MON dynstat_eta_min              =  -1.2657698009930E+00
(PID.TID 0000.0001) %MON dynstat_eta_mean             =  -2.3602073987234E-15
(PID.TID 0000.0001) %MON dynstat_eta_sd               =   4.4687465130250E-01
(PID.TID 0000.0001) %MON dynstat_eta_del2             =   2.5911292146377E-02
(PID.TID 0000.0001) %MON dynstat_uvel_max             =   1.5793754321449E-01
(PID.TID 0000.0001) %MON dynstat_uvel_min             =  -1.6973365222599E-01
(PID.TID 0000.0001) %MON dynstat_uvel_mean            =  -9.5369732307798E-04
(PID.TID 0000.0001) %MON dynstat_uvel_sd              =   1.6640937812641E-02
(PID.TID 0000.0001) %MON dynstat_uvel_del2            =   3.4345329310050E-03
(PID.TID 0000.0001) %MON dynstat_vvel_max             =   1.3308454845525E-01
(PID.TID 0000.0001) %MON dynstat_vvel_min             =  -1.2172381859803E-01
(PID.TID 0000.0001) %MON dynstat_vvel_mean            =  -1.4772110907719E-03
(PID.TID 0000.0001) %MON dynstat_vvel_sd              =   1.4655372138822E-02
(PID.TID 0000.0001) %MON dynstat_vvel_del2            =   3.3901091908324E-03
(PID.TID 0000.0001) %MON dynstat_wvel_max             =   2.3063630260706E-04
(PID.TID 0000.0001) %MON dynstat_wvel_min             =  -2.3658395785212E-04
(PID.TID 0000.0001) %MON dynstat_wvel_mean            =  -8.4937719129053E-22
(PID.TID 0000.0001) %MON dynstat_wvel_sd              =   2.2054310769666E-05
(PID.TID 0000.0001) %MON dynstat_wvel_del2            =   7.3251831633695E-06
(PID.TID 0000.0001) %MON dynstat_theta_max            =   3.0164297093607E+01
(PID.TID 0000.0001) %MON dynstat_theta_min            =  -2.0258503859905E+00
(PID.TID 0000.0001) %MON dynstat_theta_mean           =   3.5898301955391E+00
(PID.TID 0000.0001) %MON dynstat_theta_sd             =   4.3406890980486E+00
(PID.TID 0000.0001) %MON dynstat_theta_del2           =   1.3764773398643E-01
(PID.TID 0000.0001) %MON dynstat_salt_max             =   3.7398094861947E+01
(PID.TID 0000.0001) %MON dynstat_salt_min             =   2.9855845404626E+01
(PID.TID 0000.0001) %MON dynstat_salt_mean            =   3.4716015316321E+01
(PID.TID 0000.0001) %MON dynstat_salt_sd              =   2.9526332901538E-01
(PID.TID 0000.0001) %MON dynstat_salt_del2            =   2.5592693718826E-02
(PID.TID 0000.0001) %MON dynstat_sst_max              =   3.0164297093607E+01
(PID.TID 0000.0001) %MON dynstat_sst_min              =  -1.9452956410788E+00
(PID.TID 0000.0001) %MON dynstat_sst_mean             =   1.8597946134247E+01
(PID.TID 0000.0001) %MON dynstat_sst_sd               =   8.8859528862158E+00
(PID.TID 0000.0001) %MON dynstat_sst_del2             =   2.7366056321020E-01
(PID.TID 0000.0001) %MON dynstat_sss_max              =   3.7398093815370E+01
(PID.TID 0000.0001) %MON dynstat_sss_min              =   2.9855845404626E+01
(PID.TID 0000.0001) %MON dynstat_sss_mean             =   3.4843529344918E+01
(PID.TID 0000.0001) %MON dynstat_sss_sd               =   9.6375003700716E-01
(PID.TID 0000.0001) %MON dynstat_sss_del2             =   8.0529353674152E-02
(PID.TID 0000.0001) %MON extforcing_qnet_max          =   3.9182731628418E+02
(PID.TID 0000.0001) %MON extforcing_qnet_min          =  -1.7642675781250E+02
(PID.TID 0000.0001) %MON extforcing_qnet_mean         =  -1.5238888489994E+01
(PID.TID 0000.0001) %MON extforcing_qnet_sd           =   9.4114712979606E+01
(PID.TID 0000.0001) %MON extforcing_qnet_del2         =   8.9849130984227E+00
(PID.TID 0000.0001) %MON extforcing_qsw_max           =   0.0000000000000E+00
(PID.TID 0000.0001) %MON extforcing_qsw_min           =   0.0000000000000E+00
(PID.TID 0000.0001) %MON extforcing_qsw_mean          =   0.0000000000000E+00
(PID.TID 0000.0001) %MON extforcing_qsw_sd            =   0.0000000000000E+00
(PID.TID 0000.0001) %MON extforcing_qsw_del2          =   0.0000000000000E+00
(PID.TID 0000.0001) %MON extforcing_empmr_max         =   0.0000000000000E+00
(PID.TID 0000.0001) %MON extforcing_empmr_min         =   0.0000000000000E+00
(PID.TID 0000.0001) %MON extforcing_empmr_mean        =   0.0000000000000E+00
(PID.TID 0000.0001) %MON extforcing_empmr_sd          =   0.0000000000000E+00
(PID.TID 0000.0001) %MON extforcing_empmr_del2        =   0.0000000000000E+00
(PID.TID 0000.0001) %MON extforcing_fu_max            =   2.8382815420628E-01
(PID.TID 0000.0001) %MON extforcing_fu_min            =  -1.9083349406719E-01
(PID.TID 0000.0001) %MON extforcing_fu_mean           =   1.6816238384601E-02
(PID.TID 0000.0001) %MON extforcing_fu_sd             =   9.0089488020582E-02
(PID.TID 0000.0001) %MON extforcing_fu_del2           =   7.3653486710626E-03
(PID.TID 0000.0001) %MON extforcing_fv_max            =   1.8921542167664E-01
(PID.TID 0000.0001) %MON extforcing_fv_min            =  -1.6326740384102E-01
(PID.TID 0000.0001) %MON extforcing_fv_mean           =  -6.2378113402327E-03
(PID.TID 0000.0001) %MON extforcing_fv_sd             =   4.4915007548310E-02
(PID.TID 0000.0001) %MON extforcing_fv_del2           =   4.3790313685913E-03
(PID.TID 0000.0001) %MON advcfl_uvel_max              =   2.6101991767605E-02
(PID.TID 0000.0001) %MON advcfl_vvel_max              =   1.2928096672655E-02
(PID.TID 0000.0001) %MON advcfl_wvel_max              =   1.6740434720287E-01
(PID.TID 0000.0001) %MON advcfl_W_hf_max              =   1.5498868719759E-01
(PID.TID 0000.0001) %MON pe_b_mean                    =   2.5553632265240E-04
(PID.TID 0000.0001) %MON ke_max                       =   1.6090323193007E-02
(PID.TID 0000.0001) %MON ke_mean                      =   2.2362632394209E-04
(PID.TID 0000.0001) %MON ke_vol                       =   1.3226782436723E+18
(PID.TID 0000.0001) %MON vort_r_min                   =  -4.9935949234029E-07
(PID.TID 0000.0001) %MON vort_r_max                   =   4.4973426099487E-07
(PID.TID 0000.0001) %MON vort_a_mean                  =  -2.5205769229771E-05
(PID.TID 0000.0001) %MON vort_a_sd                    =   7.3403178177309E-05
(PID.TID 0000.0001) %MON vort_p_mean                  =  -3.1758669351252E-05
(PID.TID 0000.0001) %MON vort_p_sd                    =   1.3126454652269E-04
(PID.TID 0000.0001) %MON surfExpan_theta_mean         =   1.2592021283035E-05
(PID.TID 0000.0001) %MON surfExpan_salt_mean          =  -3.9562277928414E-07
(PID.TID 0000.0001) // =======================================================
(PID.TID 0000.0001) // End MONITOR dynamic field statistics
(PID.TID 0000.0001) // =======================================================
time,SST,SSS,fu,fv,Q,E-P,i0,i1,a,b =   2.6352E+06  1.8845E-01  3.4563E+01 -2.4681E-02 -3.6786E-02  2.5270E+02  0.0000E+00     1     2  5.1667E-01  4.8333E-01
time,fu0,fu1,fu =   2.6352E+06 -3.5633E-02 -1.4435E-02 -2.4681E-02  5.166666666666667E-01  4.833333333333333E-01
 cg2d: Sum(rhs),rhsMax =   2.56180493485303E-12  1.36394322886015E+01
(PID.TID 0000.0001)                    cg2d_init_res =    2.89585003779083E-01
(PID.TID 0000.0001)                       cg2d_iters =    24
(PID.TID 0000.0001)                         cg2d_res =    4.53534968104603E-14
(PID.TID 0000.0001) // =======================================================
(PID.TID 0000.0001) // Begin MONITOR dynamic field statistics
(PID.TID 0000.0001) // =======================================================
(PID.TID 0000.0001) %MON time_tsnumber                =                    62
(PID.TID 0000.0001) %MON time_secondsf                =   2.6784000000000E+06
(PID.TID 0000.0001) %MON dynstat_eta_max              =   1.6117968243478E+00
(PID.TID 0000.0001) %MON dynstat_eta_min              =  -1.2770286608311E+00
(PID.TID 0000.0001) %MON dynstat_eta_mean             =  -2.3651954713769E-15
(PID.TID 0000.0001) %MON dynstat_eta_sd               =   4.4789580009551E-01
(PID.TID 0000.0001) %MON dynstat_eta_del2             =   2.5948066711936E-02
(PID.TID 0000.0001) %MON dynstat_uvel_max             =   1.6142503739825E-01
(PID.TID 0000.0001) %MON dynstat_uvel_min             =  -1.6689064162444E-01
(PID.TID 0000.0001) %MON dynstat_uvel_mean            =  -7.9448838300964E-04
(PID.TID 0000.0001) %MON dynstat_uvel_sd              =   1.6868352901785E-02
(PID.TID 0000.0001) %MON dynstat_uvel_del2            =   3.4585201357711E-03
(PID.TID 0000.0001) %MON dynstat_vvel_max             =   1.3376062656406E-01
(PID.TID 0000.0001) %MON dynstat_vvel_min             =  -1.2488538865007E-01
(PID.TID 0000.0001) %MON dynstat_vvel_mean            =  -1.5990561542662E-03
(PID.TID 0000.0001) %MON dynstat_vvel_sd              =   1.4636879222052E-02
(PID.TID 0000.0001) %MON dynstat_vvel_del2            =   3.3946256771655E-03
(PID.TID 0000.0001) %MON dynstat_wvel_max             =   2.2878645174782E-04
(PID.TID 0000.0001) %MON dynstat_wvel_min             =  -2.2145343451633E-04
(PID.TID 0000.0001) %MON dynstat_wvel_mean            =   7.3282895188989E-22
(PID.TID 0000.0001) %MON dynstat_wvel_sd              =   2.1897269068693E-05
(PID.TID 0000.0001) %MON dynstat_wvel_del2            =   7.2730625847418E-06
(PID.TID 0000.0001) %MON dynstat_theta_max            =   3.0106970176191E+01
(PID.TID 0000.0001) %MON dynstat_theta_min            =  -2.0264101061354E+00
(PID.TID 0000.0001) %MON dynstat_theta_mean           =   3.5897351120059E+00
(PID.TID 0000.0001) %MON dynstat_theta_sd             =   4.3404468845323E+00
(PID.TID 0000.0001) %MON dynstat_theta_del2           =   1.3753753225497E-01
(PID.TID 0000.0001) %MON dynstat_salt_max             =   3.7398197950078E+01
(PID.TID 0000.0001) %MON dynstat_salt_min             =   2.9857117166780E+01
(PID.TID 0000.0001) %MON dynstat_salt_mean            =   3.4716019414885E+01
(PID.TID 0000.0001) %MON dynstat_salt_sd              =   2.9531953961322E-01
(PID.TID 0000.0001) %MON dynstat_salt_del2            =   2.5578451589433E-02
(PID.TID 0000.0001) %MON dynstat_sst_max              =   3.0106970176191E+01
(PID.TID 0000.0001) %MON dynstat_sst_min              =  -1.9450196456625E+00
(PID.TID 0000.0001) %MON dynstat_sst_mean             =   1.8601363786067E+01
(PID.TID 0000.0001) %MON dynstat_sst_sd               =   8.8847392455301E+00
(PID.TID 0000.0001) %MON dynstat_sst_del2             =   2.7332585310577E-01
(PID.TID 0000.0001) %MON dynstat_sss_max              =   3.7395634258484E+01
(PID.TID 0000.0001) %MON dynstat_sss_min              =   2.9857117166780E+01
(PID.TID 0000.0001) %MON dynstat_sss_mean             =   3.4843814177358E+01
(PID.TID 0000.0001) %MON dynstat_sss_sd               =   9.6342838400151E-01
(PID.TID 0000.0001) %MON dynstat_sss_del2             =   8.0463338448805E-02
(PID.TID 0000.0001) %MON extforcing_qnet_max          =   3.9016777292887E+02
(PID.TID 0000.0001) %MON extforcing_qnet_min          =  -1.7630699818929E+02
(PID.TID 0000.0001) %MON extforcing_qnet_mean         =  -1.5196433906292E+01
(PID.TID 0000.0001) %MON extforcing_qnet_sd           =   9.3607523035840E+01
(PID.TID 0000.0001) %MON extforcing_qnet_del2         =   8.9667775715008E+00
(PID.TID 0000.0001) %MON extforcing_qsw_max           =   0.0000000000000E+00
(PID.TID 0000.0001) %MON extforcing_qsw_min           =   0.0000000000000E+00
(PID.TID 0000.0001) %MON extforcing_qsw_mean          =   0.0000000000000E+00
(PID.TID 0000.0001) %MON extforcing_qsw_sd            =   0.0000000000000E+00
(PID.TID 0000.0001) %MON extforcing_qsw_del2          =   0.0000000000000E+00
(PID.TID 0000.0001) %MON extforcing_empmr_max         =   0.0000000000000E+00
(PID.TID 0000.0001) %MON extforcing_empmr_min         =   0.0000000000000E+00
(PID.TID 0000.0001) %MON extforcing_empmr_mean        =   0.0000000000000E+00
(PID.TID 0000.0001) %MON extforcing_empmr_sd          =   0.0000000000000E+00
(PID.TID 0000.0001) %MON extforcing_empmr_del2        =   0.0000000000000E+00
(PID.TID 0000.0001) %MON extforcing_fu_max            =   2.8452173322439E-01
(PID.TID 0000.0001) %MON extforcing_fu_min            =  -1.9166345596313E-01
(PID.TID 0000.0001) %MON extforcing_fu_mean           =   1.6843388492335E-02
(PID.TID 0000.0001) %MON extforcing_fu_sd             =   9.0124913297245E-02
(PID.TID 0000.0001) %MON extforcing_fu_del2           =   7.3718315611220E-03
(PID.TID 0000.0001) %MON extforcing_fv_max            =   1.8866466134787E-01
(PID.TID 0000.0001) %MON extforcing_fv_min            =  -1.6277175396681E-01
(PID.TID 0000.0001) %MON extforcing_fv_mean           =  -6.2704417935904E-03
(PID.TID 0000.0001) %MON extforcing_fv_sd             =   4.4861633479895E-02
(PID.TID 0000.0001) %MON extforcing_fv_del2           =   4.3846108679112E-03
(PID.TID 0000.0001) %MON advcfl_uvel_max              =   2.6678362291176E-02
(PID.TID 0000.0001) %MON advcfl_vvel_max              =   1.2993772239431E-02
(PID.TID 0000.0001) %MON advcfl_wvel_max              =   1.4602050703781E-01
(PID.TID 0000.0001) %MON advcfl_W_hf_max              =   1.3521462038930E-01
(PID.TID 0000.0001) %MON pe_b_mean                    =   2.5670550395668E-04
(PID.TID 0000.0001) %MON ke_max                       =   1.6028289170318E-02
(PID.TID 0000.0001) %MON ke_mean                      =   2.2688707686319E-04
(PID.TID 0000.0001) %MON ke_vol                       =   1.3226782436723E+18
(PID.TID 0000.0001) %MON vort_r_min                   =  -4.9426856415364E-07
(PID.TID 0000.0001) %MON vort_r_max                   =   4.3810189723947E-07
(PID.TID 0000.0001) %MON vort_a_mean                  =  -2.5205769212361E-05
(PID.TID 0000.0001) %MON vort_a_sd                    =   7.3403206496164E-05
(PID.TID 0000.0001) %MON vort_p_mean                  =  -3.1758669329315E-05
(PID.TID 0000.0001) %MON vort_p_sd                    =   1.3126457829084E-04
(PID.TID 0000.0001) %MON surfExpan_theta_mean         =   1.1450815956482E-05
(PID.TID 0000.0001) %MON surfExpan_salt_mean          =  -2.8949946394847E-07
(PID.TID 0000.0001) // =======================================================
(PID.TID 0000.0001) // End MONITOR dynamic field statistics
(PID.TID 0000.0001) // =======================================================
time,SST,SSS,fu,fv,Q,E-P,i0,i1,a,b =   2.6784E+06  1.6361E-01  3.4558E+01 -2.4327E-02 -3.6125E-02  2.5228E+02  0.0000E+00     1     2  5.3333E-01  4.6667E-01
time,fu0,fu1,fu =   2.6784E+06 -3.5633E-02 -1.4435E-02 -2.4327E-02  5.333333333333333E-01  4.666666666666667E-01
 cg2d: Sum(rhs),rhsMax =   2.85181600556683E-12  1.33374539204968E+01
(PID.TID 0000.0001)                    cg2d_init_res =    2.88197534064525E-01
(PID.TID 0000.0001)                       cg2d_iters =    24
(PID.TID 0000.0001)                         cg2d_res =    3.77482836190099E-14
(PID.TID 0000.0001) // =======================================================
(PID.TID 0000.0001) // Begin MONITOR dynamic field statistics
(PID.TID 0000.0001) // =======================================================
(PID.TID 0000.0001) %MON time_tsnumber                =                    63
(PID.TID 0000.0001) %MON time_secondsf                =   2.7216000000000E+06
(PID.TID 0000.0001) %MON dynstat_eta_max              =   1.5765446305652E+00
(PID.TID 0000.0001) %MON dynstat_eta_min              =  -1.2916916773680E+00
(PID.TID 0000.0001) %MON dynstat_eta_mean             =  -2.5699894613826E-15
(PID.TID 0000.0001) %MON dynstat_eta_sd               =   4.4875379991049E-01
(PID.TID 0000.0001) %MON dynstat_eta_del2             =   2.5931900983165E-02
(PID.TID 0000.0001) %MON dynstat_uvel_max             =   1.6549730071687E-01
(PID.TID 0000.0001) %MON dynstat_uvel_min             =  -1.6388945125780E-01
(PID.TID 0000.0001) %MON dynstat_uvel_mean            =  -6.3320558197575E-04
(PID.TID 0000.0001) %MON dynstat_uvel_sd              =   1.7083241337344E-02
(PID.TID 0000.0001) %MON dynstat_uvel_del2            =   3.4853946615651E-03
(PID.TID 0000.0001) %MON dynstat_vvel_max             =   1.3404955521338E-01
(PID.TID 0000.0001) %MON dynstat_vvel_min             =  -1.2736688498316E-01
(PID.TID 0000.0001) %MON dynstat_vvel_mean            =  -1.6935116692725E-03
(PID.TID 0000.0001) %MON dynstat_vvel_sd              =   1.4605231026435E-02
(PID.TID 0000.0001) %MON dynstat_vvel_del2            =   3.4034981703217E-03
(PID.TID 0000.0001) %MON dynstat_wvel_max             =   2.2576955319218E-04
(PID.TID 0000.0001) %MON dynstat_wvel_min             =  -2.1508074207442E-04
(PID.TID 0000.0001) %MON dynstat_wvel_mean            =   1.4651819626300E-22
(PID.TID 0000.0001) %MON dynstat_wvel_sd              =   2.1765731139338E-05
(PID.TID 0000.0001) %MON dynstat_wvel_del2            =   7.2437633800056E-06
(PID.TID 0000.0001) %MON dynstat_theta_max            =   3.0036229168163E+01
(PID.TID 0000.0001) %MON dynstat_theta_min            =  -2.0269364334866E+00
(PID.TID 0000.0001) %MON dynstat_theta_mean           =   3.5896523605227E+00
(PID.TID 0000.0001) %MON dynstat_theta_sd             =   4.3402669537906E+00
(PID.TID 0000.0001) %MON dynstat_theta_del2           =   1.3744242650250E-01
(PID.TID 0000.0001) %MON dynstat_salt_max             =   3.7398290803329E+01
(PID.TID 0000.0001) %MON dynstat_salt_min             =   2.9858465967604E+01
(PID.TID 0000.0001) %MON dynstat_salt_mean            =   3.4716022172787E+01
(PID.TID 0000.0001) %MON dynstat_salt_sd              =   2.9537279327419E-01
(PID.TID 0000.0001) %MON dynstat_salt_del2            =   2.5570811658874E-02
(PID.TID 0000.0001) %MON dynstat_sst_max              =   3.0036229168163E+01
(PID.TID 0000.0001) %MON dynstat_sst_min              =  -1.9446044616656E+00
(PID.TID 0000.0001) %MON dynstat_sst_mean             =   1.8604698126707E+01
(PID.TID 0000.0001) %MON dynstat_sst_sd               =   8.8839817540309E+00
(PID.TID 0000.0001) %MON dynstat_sst_del2             =   2.7318684708220E-01
(PID.TID 0000.0001) %MON dynstat_sss_max              =   3.7393163250211E+01
(PID.TID 0000.0001) %MON dynstat_sss_min              =   2.9858465967604E+01
(PID.TID 0000.0001) %MON dynstat_sss_mean             =   3.4844032202179E+01
(PID.TID 0000.0001) %MON dynstat_sss_sd               =   9.6305696800290E-01
(PID.TID 0000.0001) %MON dynstat_sss_del2             =   8.0434162001343E-02
(PID.TID 0000.0001) %MON extforcing_qnet_max          =   3.8850822957357E+02
(PID.TID 0000.0001) %MON extforcing_qnet_min          =  -1.7618723856608E+02
(PID.TID 0000.0001) %MON extforcing_qnet_mean         =  -1.5153979322590E+01
(PID.TID 0000.0001) %MON extforcing_qnet_sd           =   9.3101706459460E+01
(PID.TID 0000.0001) %MON extforcing_qnet_del2         =   8.9491856150733E+00
(PID.TID 0000.0001) %MON extforcing_qsw_max           =   0.0000000000000E+00
(PID.TID 0000.0001) %MON extforcing_qsw_min           =   0.0000000000000E+00
(PID.TID 0000.0001) %MON extforcing_qsw_mean          =   0.0000000000000E+00
(PID.TID 0000.0001) %MON extforcing_qsw_sd            =   0.0000000000000E+00
(PID.TID 0000.0001) %MON extforcing_qsw_del2          =   0.0000000000000E+00
(PID.TID 0000.0001) %MON extforcing_empmr_max         =   0.0000000000000E+00
(PID.TID 0000.0001) %MON extforcing_empmr_min         =   0.0000000000000E+00
(PID.TID 0000.0001) %MON extforcing_empmr_mean        =   0.0000000000000E+00
(PID.TID 0000.0001) %MON extforcing_empmr_sd          =   0.0000000000000E+00
(PID.TID 0000.0001) %MON extforcing_empmr_del2        =   0.0000000000000E+00
(PID.TID 0000.0001) %MON extforcing_fu_max            =   2.8521531224251E-01
(PID.TID 0000.0001) %MON extforcing_fu_min            =  -1.9249341785908E-01
(PID.TID 0000.0001) %MON extforcing_fu_mean           =   1.6870538600070E-02
(PID.TID 0000.0001) %MON extforcing_fu_sd             =   9.0164710524852E-02
(PID.TID 0000.0001) %MON extforcing_fu_del2           =   7.3801127759637E-03
(PID.TID 0000.0001) %MON extforcing_fv_max            =   1.8811390101910E-01
(PID.TID 0000.0001) %MON extforcing_fv_min            =  -1.6227610409260E-01
(PID.TID 0000.0001) %MON extforcing_fv_mean           =  -6.3030722469479E-03
(PID.TID 0000.0001) %MON extforcing_fv_sd             =   4.4812198805099E-02
(PID.TID 0000.0001) %MON extforcing_fv_del2           =   4.3915655755969E-03
(PID.TID 0000.0001) %MON advcfl_uvel_max              =   2.7351376328591E-02
(PID.TID 0000.0001) %MON advcfl_vvel_max              =   1.3021839340784E-02
(PID.TID 0000.0001) %MON advcfl_wvel_max              =   1.2008741038990E-01
(PID.TID 0000.0001) %MON advcfl_W_hf_max              =   1.1122885386024E-01
(PID.TID 0000.0001) %MON pe_b_mean                    =   2.5768994826739E-04
(PID.TID 0000.0001) %MON ke_max                       =   1.5961707928867E-02
(PID.TID 0000.0001) %MON ke_mean                      =   2.2982120221562E-04
(PID.TID 0000.0001) %MON ke_vol                       =   1.3226782436723E+18
(PID.TID 0000.0001) %MON vort_r_min                   =  -4.8974100591608E-07
(PID.TID 0000.0001) %MON vort_r_max                   =   4.2546906471598E-07
(PID.TID 0000.0001) %MON vort_a_mean                  =  -2.5205769192595E-05
(PID.TID 0000.0001) %MON vort_a_sd                    =   7.3403235300576E-05
(PID.TID 0000.0001) %MON vort_p_mean                  =  -3.1758669304410E-05
(PID.TID 0000.0001) %MON vort_p_sd                    =   1.3126460688611E-04
(PID.TID 0000.0001) %MON surfExpan_theta_mean         =   1.0358883140538E-05
(PID.TID 0000.0001) %MON surfExpan_salt_mean          =  -1.7148571646654E-07
(PID.TID 0000.0001) // =======================================================
(PID.TID 0000.0001) // End MONITOR dynamic field statistics
(PID.TID 0000.0001) // =======================================================
time,SST,SSS,fu,fv,Q,E-P,i0,i1,a,b =   2.7216E+06  1.3877E-01  3.4553E+01 -2.3974E-02 -3.5465E-02  2.5186E+02  0.0000E+00     1     2  5.5000E-01  4.5000E-01
time,fu0,fu1,fu =   2.7216E+06 -3.5633E-02 -1.4435E-02 -2.3974E-02  5.500000000000000E-01  4.500000000000000E-01
 cg2d: Sum(rhs),rhsMax =   3.29157534562086E-12  1.28756214077096E+01
(PID.TID 0000.0001)                    cg2d_init_res =    2.94302652090234E-01
(PID.TID 0000.0001)                       cg2d_iters =    23
(PID.TID 0000.0001)                         cg2d_res =    8.57972952735161E-14
(PID.TID 0000.0001) // =======================================================
(PID.TID 0000.0001) // Begin MONITOR dynamic field statistics
(PID.TID 0000.0001) // =======================================================
(PID.TID 0000.0001) %MON time_tsnumber                =                    64
(PID.TID 0000.0001) %MON time_secondsf                =   2.7648000000000E+06
(PID.TID 0000.0001) %MON dynstat_eta_max              =   1.5226619049831E+00
(PID.TID 0000.0001) %MON dynstat_eta_min              =  -1.3043829899829E+00
(PID.TID 0000.0001) %MON dynstat_eta_mean             =  -2.6451360140808E-15
(PID.TID 0000.0001) %MON dynstat_eta_sd               =   4.4943095833689E-01
(PID.TID 0000.0001) %MON dynstat_eta_del2             =   2.5836197872874E-02
(PID.TID 0000.0001) %MON dynstat_uvel_max             =   1.6805059519208E-01
(PID.TID 0000.0001) %MON dynstat_uvel_min             =  -1.6073938408075E-01
(PID.TID 0000.0001) %MON dynstat_uvel_mean            =  -4.7104341560723E-04
(PID.TID 0000.0001) %MON dynstat_uvel_sd              =   1.7278413081243E-02
(PID.TID 0000.0001) %MON dynstat_uvel_del2            =   3.5128024035514E-03
(PID.TID 0000.0001) %MON dynstat_vvel_max             =   1.3395565597866E-01
(PID.TID 0000.0001) %MON dynstat_vvel_min             =  -1.2916012094967E-01
(PID.TID 0000.0001) %MON dynstat_vvel_mean            =  -1.7617118165758E-03
(PID.TID 0000.0001) %MON dynstat_vvel_sd              =   1.4567648406378E-02
(PID.TID 0000.0001) %MON dynstat_vvel_del2            =   3.4172929439490E-03
(PID.TID 0000.0001) %MON dynstat_wvel_max             =   2.2168552453561E-04
(PID.TID 0000.0001) %MON dynstat_wvel_min             =  -2.1530142742049E-04
(PID.TID 0000.0001) %MON dynstat_wvel_mean            =  -8.7751649499526E-23
(PID.TID 0000.0001) %MON dynstat_wvel_sd              =   2.1667175035904E-05
(PID.TID 0000.0001) %MON dynstat_wvel_del2            =   7.2263736049104E-06
(PID.TID 0000.0001) %MON dynstat_theta_max            =   2.9953423605332E+01
(PID.TID 0000.0001) %MON dynstat_theta_min            =  -2.0274379123691E+00
(PID.TID 0000.0001) %MON dynstat_theta_mean           =   3.5895813946900E+00
(PID.TID 0000.0001) %MON dynstat_theta_sd             =   4.3401440051122E+00
(PID.TID 0000.0001) %MON dynstat_theta_del2           =   1.3735183508116E-01
(PID.TID 0000.0001) %MON dynstat_salt_max             =   3.7398412702317E+01
(PID.TID 0000.0001) %MON dynstat_salt_min             =   2.9859893764217E+01
(PID.TID 0000.0001) %MON dynstat_salt_mean            =   3.4716023513743E+01
(PID.TID 0000.0001) %MON dynstat_salt_sd              =   2.9542210581021E-01
(PID.TID 0000.0001) %MON dynstat_salt_del2            =   2.5561364395580E-02
(PID.TID 0000.0001) %MON dynstat_sst_max              =   2.9953423605332E+01
(PID.TID 0000.0001) %MON dynstat_sst_min              =  -1.9440492798611E+00
(PID.TID 0000.0001) %MON dynstat_sst_mean             =   1.8608211488749E+01
(PID.TID 0000.0001) %MON dynstat_sst_sd               =   8.8835982354930E+00
(PID.TID 0000.0001) %MON dynstat_sst_del2             =   2.7291283896758E-01
(PID.TID 0000.0001) %MON dynstat_sss_max              =   3.7390678423477E+01
(PID.TID 0000.0001) %MON dynstat_sss_min              =   2.9859893764217E+01
(PID.TID 0000.0001) %MON dynstat_sss_mean             =   3.4844268929583E+01
(PID.TID 0000.0001) %MON dynstat_sss_sd               =   9.6274989778979E-01
(PID.TID 0000.0001) %MON dynstat_sss_del2             =   8.0386110639547E-02
(PID.TID 0000.0001) %MON extforcing_qnet_max          =   3.8684868621826E+02
(PID.TID 0000.0001) %MON extforcing_qnet_min          =  -1.7606747894287E+02
(PID.TID 0000.0001) %MON extforcing_qnet_mean         =  -1.5111524738889E+01
(PID.TID 0000.0001) %MON extforcing_qnet_sd           =   9.2597285756702E+01
(PID.TID 0000.0001) %MON extforcing_qnet_del2         =   8.9319626112778E+00
(PID.TID 0000.0001) %MON extforcing_qsw_max           =   0.0000000000000E+00
(PID.TID 0000.0001) %MON extforcing_qsw_min           =   0.0000000000000E+00
(PID.TID 0000.0001) %MON extforcing_qsw_mean          =   0.0000000000000E+00
(PID.TID 0000.0001) %MON extforcing_qsw_sd            =   0.0000000000000E+00
(PID.TID 0000.0001) %MON extforcing_qsw_del2          =   0.0000000000000E+00
(PID.TID 0000.0001) %MON extforcing_empmr_max         =   0.0000000000000E+00
(PID.TID 0000.0001) %MON extforcing_empmr_min         =   0.0000000000000E+00
(PID.TID 0000.0001) %MON extforcing_empmr_mean        =   0.0000000000000E+00
(PID.TID 0000.0001) %MON extforcing_empmr_sd          =   0.0000000000000E+00
(PID.TID 0000.0001) %MON extforcing_empmr_del2        =   0.0000000000000E+00
(PID.TID 0000.0001) %MON extforcing_fu_max            =   2.8590889126062E-01
(PID.TID 0000.0001) %MON extforcing_fu_min            =  -1.9332337975502E-01
(PID.TID 0000.0001) %MON extforcing_fu_mean           =   1.6897688707804E-02
(PID.TID 0000.0001) %MON extforcing_fu_sd             =   9.0208873917115E-02
(PID.TID 0000.0001) %MON extforcing_fu_del2           =   7.3902632506065E-03
(PID.TID 0000.0001) %MON extforcing_fv_max            =   1.8756314069033E-01
(PID.TID 0000.0001) %MON extforcing_fv_min            =  -1.6178045421839E-01
(PID.TID 0000.0001) %MON extforcing_fv_mean           =  -6.3357027003055E-03
(PID.TID 0000.0001) %MON extforcing_fv_sd             =   4.4766716574420E-02
(PID.TID 0000.0001) %MON extforcing_fv_del2           =   4.4002830492519E-03
(PID.TID 0000.0001) %MON advcfl_uvel_max              =   2.7773353712915E-02
(PID.TID 0000.0001) %MON advcfl_vvel_max              =   1.3012717783112E-02
(PID.TID 0000.0001) %MON advcfl_wvel_max              =   1.0374656996353E-01
(PID.TID 0000.0001) %MON advcfl_W_hf_max              =   1.0249530163040E-01
(PID.TID 0000.0001) %MON pe_b_mean                    =   2.5846823059360E-04
(PID.TID 0000.0001) %MON ke_max                       =   1.5890543433443E-02
(PID.TID 0000.0001) %MON ke_mean                      =   2.3240025225114E-04
(PID.TID 0000.0001) %MON ke_vol                       =   1.3226782436723E+18
(PID.TID 0000.0001) %MON vort_r_min                   =  -4.8595282394704E-07
(PID.TID 0000.0001) %MON vort_r_max                   =   4.1444086574079E-07
(PID.TID 0000.0001) %MON vort_a_mean                  =  -2.5205769171260E-05
(PID.TID 0000.0001) %MON vort_a_sd                    =   7.3403264343642E-05
(PID.TID 0000.0001) %MON vort_p_mean                  =  -3.1758669277530E-05
(PID.TID 0000.0001) %MON vort_p_sd                    =   1.3126463229812E-04
(PID.TID 0000.0001) %MON surfExpan_theta_mean         =   9.3118204991824E-06
(PID.TID 0000.0001) %MON surfExpan_salt_mean          =  -4.9702303049225E-08
(PID.TID 0000.0001) // =======================================================
(PID.TID 0000.0001) // End MONITOR dynamic field statistics
(PID.TID 0000.0001) // =======================================================
time,SST,SSS,fu,fv,Q,E-P,i0,i1,a,b =   2.7648E+06  1.1393E-01  3.4548E+01 -2.3621E-02 -3.4805E-02  2.5144E+02  0.0000E+00     1     2  5.6667E-01  4.3333E-01
time,fu0,fu1,fu =   2.7648E+06 -3.5633E-02 -1.4435E-02 -2.3621E-02  5.666666666666667E-01  4.333333333333333E-01
 cg2d: Sum(rhs),rhsMax =   3.41870282083434E-12  1.22747851122305E+01
(PID.TID 0000.0001)                    cg2d_init_res =    3.08998694202836E-01
(PID.TID 0000.0001)                       cg2d_iters =    24
(PID.TID 0000.0001)                         cg2d_res =    4.26989590643701E-14
(PID.TID 0000.0001) // =======================================================
(PID.TID 0000.0001) // Begin MONITOR dynamic field statistics
(PID.TID 0000.0001) // =======================================================
(PID.TID 0000.0001) %MON time_tsnumber                =                    65
(PID.TID 0000.0001) %MON time_secondsf                =   2.8080000000000E+06
(PID.TID 0000.0001) %MON dynstat_eta_max              =   1.4525698705485E+00
(PID.TID 0000.0001) %MON dynstat_eta_min              =  -1.3172056089022E+00
(PID.TID 0000.0001) %MON dynstat_eta_mean             =  -2.5514310009996E-15
(PID.TID 0000.0001) %MON dynstat_eta_sd               =   4.4992363148169E-01
(PID.TID 0000.0001) %MON dynstat_eta_del2             =   2.5687084680726E-02
(PID.TID 0000.0001) %MON dynstat_uvel_max             =   1.6907731809417E-01
(PID.TID 0000.0001) %MON dynstat_uvel_min             =  -1.5744871310990E-01
(PID.TID 0000.0001) %MON dynstat_uvel_mean            =  -3.0904798433163E-04
(PID.TID 0000.0001) %MON dynstat_uvel_sd              =   1.7446928459024E-02
(PID.TID 0000.0001) %MON dynstat_uvel_del2            =   3.5396179572697E-03
(PID.TID 0000.0001) %MON dynstat_vvel_max             =   1.3348394071751E-01
(PID.TID 0000.0001) %MON dynstat_vvel_min             =  -1.3069055747856E-01
(PID.TID 0000.0001) %MON dynstat_vvel_mean            =  -1.8051611403466E-03
(PID.TID 0000.0001) %MON dynstat_vvel_sd              =   1.4530608715126E-02
(PID.TID 0000.0001) %MON dynstat_vvel_del2            =   3.4352726915910E-03
(PID.TID 0000.0001) %MON dynstat_wvel_max             =   2.1665048777847E-04
(PID.TID 0000.0001) %MON dynstat_wvel_min             =  -2.1420227611013E-04
(PID.TID 0000.0001) %MON dynstat_wvel_mean            =   4.3113960520618E-22
(PID.TID 0000.0001) %MON dynstat_wvel_sd              =   2.1603177657064E-05
(PID.TID 0000.0001) %MON dynstat_wvel_del2            =   7.2224584759312E-06
(PID.TID 0000.0001) %MON dynstat_theta_max            =   2.9860215740065E+01
(PID.TID 0000.0001) %MON dynstat_theta_min            =  -2.0279207192880E+00
(PID.TID 0000.0001) %MON dynstat_theta_mean           =   3.5895217013768E+00
(PID.TID 0000.0001) %MON dynstat_theta_sd             =   4.3400717595180E+00
(PID.TID 0000.0001) %MON dynstat_theta_del2           =   1.3727167839202E-01
(PID.TID 0000.0001) %MON dynstat_salt_max             =   3.7398599003831E+01
(PID.TID 0000.0001) %MON dynstat_salt_min             =   2.9861398319270E+01
(PID.TID 0000.0001) %MON dynstat_salt_mean            =   3.4716023447646E+01
(PID.TID 0000.0001) %MON dynstat_salt_sd              =   2.9546528366721E-01
(PID.TID 0000.0001) %MON dynstat_salt_del2            =   2.5552185386454E-02
(PID.TID 0000.0001) %MON dynstat_sst_max              =   2.9860215740065E+01
(PID.TID 0000.0001) %MON dynstat_sst_min              =  -1.9433587137781E+00
(PID.TID 0000.0001) %MON dynstat_sst_mean             =   1.8611949564807E+01
(PID.TID 0000.0001) %MON dynstat_sst_sd               =   8.8833783453254E+00
(PID.TID 0000.0001) %MON dynstat_sst_del2             =   2.7255292975025E-01
(PID.TID 0000.0001) %MON dynstat_sss_max              =   3.7388179430453E+01
(PID.TID 0000.0001) %MON dynstat_sss_min              =   2.9861398319270E+01
(PID.TID 0000.0001) %MON dynstat_sss_mean             =   3.4844519018141E+01
(PID.TID 0000.0001) %MON dynstat_sss_sd               =   9.6248164844646E-01
(PID.TID 0000.0001) %MON dynstat_sss_del2             =   8.0312629462072E-02
(PID.TID 0000.0001) %MON extforcing_qnet_max          =   3.8518914286296E+02
(PID.TID 0000.0001) %MON extforcing_qnet_min          =  -1.7594771931966E+02
(PID.TID 0000.0001) %MON extforcing_qnet_mean         =  -1.5069070155187E+01
(PID.TID 0000.0001) %MON extforcing_qnet_sd           =   9.2094283864091E+01
(PID.TID 0000.0001) %MON extforcing_qnet_del2         =   8.9150097138181E+00
(PID.TID 0000.0001) %MON extforcing_qsw_max           =   0.0000000000000E+00
(PID.TID 0000.0001) %MON extforcing_qsw_min           =   0.0000000000000E+00
(PID.TID 0000.0001) %MON extforcing_qsw_mean          =   0.0000000000000E+00
(PID.TID 0000.0001) %MON extforcing_qsw_sd            =   0.0000000000000E+00
(PID.TID 0000.0001) %MON extforcing_qsw_del2          =   0.0000000000000E+00
(PID.TID 0000.0001) %MON extforcing_empmr_max         =   0.0000000000000E+00
(PID.TID 0000.0001) %MON extforcing_empmr_min         =   0.0000000000000E+00
(PID.TID 0000.0001) %MON extforcing_empmr_mean        =   0.0000000000000E+00
(PID.TID 0000.0001) %MON extforcing_empmr_sd          =   0.0000000000000E+00
(PID.TID 0000.0001) %MON extforcing_empmr_del2        =   0.0000000000000E+00
(PID.TID 0000.0001) %MON extforcing_fu_max            =   2.8660247027874E-01
(PID.TID 0000.0001) %MON extforcing_fu_min            =  -1.9415334165096E-01
(PID.TID 0000.0001) %MON extforcing_fu_mean           =   1.6924838815539E-02
(PID.TID 0000.0001) %MON extforcing_fu_sd             =   9.0257397064876E-02
(PID.TID 0000.0001) %MON extforcing_fu_del2           =   7.4020956136185E-03
(PID.TID 0000.0001) %MON extforcing_fv_max            =   1.8701238036156E-01
(PID.TID 0000.0001) %MON extforcing_fv_min            =  -1.6128480434418E-01
(PID.TID 0000.0001) %MON extforcing_fv_mean           =  -6.3683331536630E-03
(PID.TID 0000.0001) %MON extforcing_fv_sd             =   4.4725198845894E-02
(PID.TID 0000.0001) %MON extforcing_fv_del2           =   4.4107138196640E-03
(PID.TID 0000.0001) %MON advcfl_uvel_max              =   2.7943037957666E-02
(PID.TID 0000.0001) %MON advcfl_vvel_max              =   1.2966894428193E-02
(PID.TID 0000.0001) %MON advcfl_wvel_max              =   1.1147276037506E-01
(PID.TID 0000.0001) %MON advcfl_W_hf_max              =   1.1266360793730E-01
(PID.TID 0000.0001) %MON pe_b_mean                    =   2.5903521490949E-04
(PID.TID 0000.0001) %MON ke_max                       =   1.5814321984258E-02
(PID.TID 0000.0001) %MON ke_mean                      =   2.3458708941830E-04
(PID.TID 0000.0001) %MON ke_vol                       =   1.3226782436723E+18
(PID.TID 0000.0001) %MON vort_r_min                   =  -4.8304009503073E-07
(PID.TID 0000.0001) %MON vort_r_max                   =   4.1281630218441E-07
(PID.TID 0000.0001) %MON vort_a_mean                  =  -2.5205769149210E-05
(PID.TID 0000.0001) %MON vort_a_sd                    =   7.3403293409336E-05
(PID.TID 0000.0001) %MON vort_p_mean                  =  -3.1758669249746E-05
(PID.TID 0000.0001) %MON vort_p_sd                    =   1.3126465463571E-04
(PID.TID 0000.0001) %MON surfExpan_theta_mean         =   8.3117147314412E-06
(PID.TID 0000.0001) %MON surfExpan_salt_mean          =   6.9220534259209E-08
(PID.TID 0000.0001) // =======================================================
(PID.TID 0000.0001) // End MONITOR dynamic field statistics
(PID.TID 0000.0001) // =======================================================
time,SST,SSS,fu,fv,Q,E-P,i0,i1,a,b =   2.8080E+06  8.9094E-02  3.4543E+01 -2.3267E-02 -3.4144E-02  2.5102E+02  0.0000E+00     1     2  5.8333E-01  4.1667E-01
time,fu0,fu1,fu =   2.8080E+06 -3.5633E-02 -1.4435E-02 -2.3267E-02  5.833333333333334E-01  4.166666666666666E-01
 cg2d: Sum(rhs),rhsMax =   3.70641711766595E-12  1.15588664831698E+01
(PID.TID 0000.0001)                    cg2d_init_res =    3.33072750663610E-01
(PID.TID 0000.0001)                       cg2d_iters =    24
(PID.TID 0000.0001)                         cg2d_res =    3.39718863999061E-14
(PID.TID 0000.0001) // =======================================================
(PID.TID 0000.0001) // Begin MONITOR dynamic field statistics
(PID.TID 0000.0001) // =======================================================
(PID.TID 0000.0001) %MON time_tsnumber                =                    66
(PID.TID 0000.0001) %MON time_secondsf                =   2.8512000000000E+06
(PID.TID 0000.0001) %MON dynstat_eta_max              =   1.3690481895268E+00
(PID.TID 0000.0001) %MON dynstat_eta_min              =  -1.3268173572708E+00
(PID.TID 0000.0001) %MON dynstat_eta_mean             =  -2.5543743176292E-15
(PID.TID 0000.0001) %MON dynstat_eta_sd               =   4.5024378159410E-01
(PID.TID 0000.0001) %MON dynstat_eta_del2             =   2.5515808706096E-02
(PID.TID 0000.0001) %MON dynstat_uvel_max             =   1.7563070405292E-01
(PID.TID 0000.0001) %MON dynstat_uvel_min             =  -1.5443592520311E-01
(PID.TID 0000.0001) %MON dynstat_uvel_mean            =  -1.4813069654592E-04
(PID.TID 0000.0001) %MON dynstat_uvel_sd              =   1.7582518772361E-02
(PID.TID 0000.0001) %MON dynstat_uvel_del2            =   3.5659323001892E-03
(PID.TID 0000.0001) %MON dynstat_vvel_max             =   1.3327467114425E-01
(PID.TID 0000.0001) %MON dynstat_vvel_min             =  -1.3125249263061E-01
(PID.TID 0000.0001) %MON dynstat_vvel_mean            =  -1.8256897912906E-03
(PID.TID 0000.0001) %MON dynstat_vvel_sd              =   1.4499192258358E-02
(PID.TID 0000.0001) %MON dynstat_vvel_del2            =   3.4563528480794E-03
(PID.TID 0000.0001) %MON dynstat_wvel_max             =   2.1079221041906E-04
(PID.TID 0000.0001) %MON dynstat_wvel_min             =  -2.1179157830643E-04
(PID.TID 0000.0001) %MON dynstat_wvel_mean            =   2.5148615672294E-22
(PID.TID 0000.0001) %MON dynstat_wvel_sd              =   2.1569358614306E-05
(PID.TID 0000.0001) %MON dynstat_wvel_del2            =   7.2359889907950E-06
(PID.TID 0000.0001) %MON dynstat_theta_max            =   2.9758566704978E+01
(PID.TID 0000.0001) %MON dynstat_theta_min            =  -2.0283884860643E+00
(PID.TID 0000.0001) %MON dynstat_theta_mean           =   3.5894727094957E+00
(PID.TID 0000.0001) %MON dynstat_theta_sd             =   4.3400463056939E+00
(PID.TID 0000.0001) %MON dynstat_theta_del2           =   1.3720077001549E-01
(PID.TID 0000.0001) %MON dynstat_salt_max             =   3.7398881699946E+01
(PID.TID 0000.0001) %MON dynstat_salt_min             =   2.9862973059751E+01
(PID.TID 0000.0001) %MON dynstat_salt_mean            =   3.4716022051200E+01
(PID.TID 0000.0001) %MON dynstat_salt_sd              =   2.9550302237322E-01
(PID.TID 0000.0001) %MON dynstat_salt_del2            =   2.5544318119927E-02
(PID.TID 0000.0001) %MON dynstat_sst_max              =   2.9758566704978E+01
(PID.TID 0000.0001) %MON dynstat_sst_min              =  -1.9425403411691E+00
(PID.TID 0000.0001) %MON dynstat_sst_mean             =   1.8615313782342E+01
(PID.TID 0000.0001) %MON dynstat_sst_sd               =   8.8838257451043E+00
(PID.TID 0000.0001) %MON dynstat_sst_del2             =   2.7219303054478E-01
(PID.TID 0000.0001) %MON dynstat_sss_max              =   3.7385665147278E+01
(PID.TID 0000.0001) %MON dynstat_sss_min              =   2.9862973059751E+01
(PID.TID 0000.0001) %MON dynstat_sss_mean             =   3.4844652493213E+01
(PID.TID 0000.0001) %MON dynstat_sss_sd               =   9.6220318535502E-01
(PID.TID 0000.0001) %MON dynstat_sss_del2             =   8.0243139915814E-02
(PID.TID 0000.0001) %MON extforcing_qnet_max          =   3.8352959950765E+02
(PID.TID 0000.0001) %MON extforcing_qnet_min          =  -1.7582795969645E+02
(PID.TID 0000.0001) %MON extforcing_qnet_mean         =  -1.5026615571485E+01
(PID.TID 0000.0001) %MON extforcing_qnet_sd           =   9.1592724156768E+01
(PID.TID 0000.0001) %MON extforcing_qnet_del2         =   8.8981676607321E+00
(PID.TID 0000.0001) %MON extforcing_qsw_max           =   0.0000000000000E+00
(PID.TID 0000.0001) %MON extforcing_qsw_min           =   0.0000000000000E+00
(PID.TID 0000.0001) %MON extforcing_qsw_mean          =   0.0000000000000E+00
(PID.TID 0000.0001) %MON extforcing_qsw_sd            =   0.0000000000000E+00
(PID.TID 0000.0001) %MON extforcing_qsw_del2          =   0.0000000000000E+00
(PID.TID 0000.0001) %MON extforcing_empmr_max         =   0.0000000000000E+00
(PID.TID 0000.0001) %MON extforcing_empmr_min         =   0.0000000000000E+00
(PID.TID 0000.0001) %MON extforcing_empmr_mean        =   0.0000000000000E+00
(PID.TID 0000.0001) %MON extforcing_empmr_sd          =   0.0000000000000E+00
(PID.TID 0000.0001) %MON extforcing_empmr_del2        =   0.0000000000000E+00
(PID.TID 0000.0001) %MON extforcing_fu_max            =   2.8729604929686E-01
(PID.TID 0000.0001) %MON extforcing_fu_min            =  -1.9498330354691E-01
(PID.TID 0000.0001) %MON extforcing_fu_mean           =   1.6951988923273E-02
(PID.TID 0000.0001) %MON extforcing_fu_sd             =   9.0310272940727E-02
(PID.TID 0000.0001) %MON extforcing_fu_del2           =   7.4147344878270E-03
(PID.TID 0000.0001) %MON extforcing_fv_max            =   1.8646162003279E-01
(PID.TID 0000.0001) %MON extforcing_fv_min            =  -1.6078915446997E-01
(PID.TID 0000.0001) %MON extforcing_fv_mean           =  -6.4009636070206E-03
(PID.TID 0000.0001) %MON extforcing_fv_sd             =   4.4687656669359E-02
(PID.TID 0000.0001) %MON extforcing_fv_del2           =   4.4229804054233E-03
(PID.TID 0000.0001) %MON advcfl_uvel_max              =   2.7864204829179E-02
(PID.TID 0000.0001) %MON advcfl_vvel_max              =   1.2946565567290E-02
(PID.TID 0000.0001) %MON advcfl_wvel_max              =   1.2027122067121E-01
(PID.TID 0000.0001) %MON advcfl_W_hf_max              =   1.2040763635646E-01
(PID.TID 0000.0001) %MON pe_b_mean                    =   2.5940398708541E-04
(PID.TID 0000.0001) %MON ke_max                       =   1.5732137564927E-02
(PID.TID 0000.0001) %MON ke_mean                      =   2.3633552579056E-04
(PID.TID 0000.0001) %MON ke_vol                       =   1.3226782436723E+18
(PID.TID 0000.0001) %MON vort_r_min                   =  -4.8109001136063E-07
(PID.TID 0000.0001) %MON vort_r_max                   =   4.1161717053885E-07
(PID.TID 0000.0001) %MON vort_a_mean                  =  -2.5205769127289E-05
(PID.TID 0000.0001) %MON vort_a_sd                    =   7.3403322312337E-05
(PID.TID 0000.0001) %MON vort_p_mean                  =  -3.1758669222127E-05
(PID.TID 0000.0001) %MON vort_p_sd                    =   1.3126467416231E-04
(PID.TID 0000.0001) %MON surfExpan_theta_mean         =   7.3690473094468E-06
(PID.TID 0000.0001) %MON surfExpan_salt_mean          =   1.8104510812054E-07
(PID.TID 0000.0001) // =======================================================
(PID.TID 0000.0001) // End MONITOR dynamic field statistics
(PID.TID 0000.0001) // =======================================================
time,SST,SSS,fu,fv,Q,E-P,i0,i1,a,b =   2.8512E+06  6.4256E-02  3.4538E+01 -2.2914E-02 -3.3484E-02  2.5060E+02  0.0000E+00     1     2  6.0000E-01  4.0000E-01
time,fu0,fu1,fu =   2.8512E+06 -3.5633E-02 -1.4435E-02 -2.2914E-02  6.000000000000000E-01  4.000000000000000E-01
 cg2d: Sum(rhs),rhsMax =   3.44643064087435E-12  1.07539404568680E+01
(PID.TID 0000.0001)                    cg2d_init_res =    3.66933503070008E-01
(PID.TID 0000.0001)                       cg2d_iters =    24
(PID.TID 0000.0001)                         cg2d_res =    6.07087890657311E-14
(PID.TID 0000.0001) // =======================================================
(PID.TID 0000.0001) // Begin MONITOR dynamic field statistics
(PID.TID 0000.0001) // =======================================================
(PID.TID 0000.0001) %MON time_tsnumber                =                    67
(PID.TID 0000.0001) %MON time_secondsf                =   2.8944000000000E+06
(PID.TID 0000.0001) %MON dynstat_eta_max              =   1.2751286396000E+00
(PID.TID 0000.0001) %MON dynstat_eta_min              =  -1.3328661236366E+00
(PID.TID 0000.0001) %MON dynstat_eta_mean             =  -2.2011904726437E-15
(PID.TID 0000.0001) %MON dynstat_eta_sd               =   4.5041798156741E-01
(PID.TID 0000.0001) %MON dynstat_eta_del2             =   2.5347057576401E-02
(PID.TID 0000.0001) %MON dynstat_uvel_max             =   1.8105524122114E-01
(PID.TID 0000.0001) %MON dynstat_uvel_min             =  -1.5243949284564E-01
(PID.TID 0000.0001) %MON dynstat_uvel_mean            =   1.0875813786665E-05
(PID.TID 0000.0001) %MON dynstat_uvel_sd              =   1.7679944177373E-02
(PID.TID 0000.0001) %MON dynstat_uvel_del2            =   3.5885800460017E-03
(PID.TID 0000.0001) %MON dynstat_vvel_max             =   1.3944908968785E-01
(PID.TID 0000.0001) %MON dynstat_vvel_min             =  -1.3053246220441E-01
(PID.TID 0000.0001) %MON dynstat_vvel_mean            =  -1.8253679319379E-03
(PID.TID 0000.0001) %MON dynstat_vvel_sd              =   1.4476644787471E-02
(PID.TID 0000.0001) %MON dynstat_vvel_del2            =   3.4784499693945E-03
(PID.TID 0000.0001) %MON dynstat_wvel_max             =   2.0424589330708E-04
(PID.TID 0000.0001) %MON dynstat_wvel_min             =  -2.0811045168663E-04
(PID.TID 0000.0001) %MON dynstat_wvel_mean            =   7.1471451704282E-23
(PID.TID 0000.0001) %MON dynstat_wvel_sd              =   2.1555516082554E-05
(PID.TID 0000.0001) %MON dynstat_wvel_del2            =   7.2563704526846E-06
(PID.TID 0000.0001) %MON dynstat_theta_max            =   2.9650707602928E+01
(PID.TID 0000.0001) %MON dynstat_theta_min            =  -2.0288423633993E+00
(PID.TID 0000.0001) %MON dynstat_theta_mean           =   3.5894337783412E+00
(PID.TID 0000.0001) %MON dynstat_theta_sd             =   4.3400638582827E+00
(PID.TID 0000.0001) %MON dynstat_theta_del2           =   1.3716591977477E-01
(PID.TID 0000.0001) %MON dynstat_salt_max             =   3.7392560797475E+01
(PID.TID 0000.0001) %MON dynstat_salt_min             =   2.9864607166451E+01
(PID.TID 0000.0001) %MON dynstat_salt_mean            =   3.4716019440110E+01
(PID.TID 0000.0001) %MON dynstat_salt_sd              =   2.9553540593193E-01
(PID.TID 0000.0001) %MON dynstat_salt_del2            =   2.5539639049763E-02
(PID.TID 0000.0001) %MON dynstat_sst_max              =   2.9650707602928E+01
(PID.TID 0000.0001) %MON dynstat_sst_min              =  -1.9416047981392E+00
(PID.TID 0000.0001) %MON dynstat_sst_mean             =   1.8618493948984E+01
(PID.TID 0000.0001) %MON dynstat_sst_sd               =   8.8848302073766E+00
(PID.TID 0000.0001) %MON dynstat_sst_del2             =   2.7203703753101E-01
(PID.TID 0000.0001) %MON dynstat_sss_max              =   3.7392554250664E+01
(PID.TID 0000.0001) %MON dynstat_sss_min              =   2.9864607166451E+01
(PID.TID 0000.0001) %MON dynstat_sss_mean             =   3.4844728281530E+01
(PID.TID 0000.0001) %MON dynstat_sss_sd               =   9.6197837287973E-01
(PID.TID 0000.0001) %MON dynstat_sss_del2             =   8.0206075581607E-02
(PID.TID 0000.0001) %MON extforcing_qnet_max          =   3.8187005615234E+02
(PID.TID 0000.0001) %MON extforcing_qnet_min          =  -1.7570820007324E+02
(PID.TID 0000.0001) %MON extforcing_qnet_mean         =  -1.4984160987784E+01
(PID.TID 0000.0001) %MON extforcing_qnet_sd           =   9.1092630456928E+01
(PID.TID 0000.0001) %MON extforcing_qnet_del2         =   8.8813974262224E+00
(PID.TID 0000.0001) %MON extforcing_qsw_max           =   0.0000000000000E+00
(PID.TID 0000.0001) %MON extforcing_qsw_min           =   0.0000000000000E+00
(PID.TID 0000.0001) %MON extforcing_qsw_mean          =   0.0000000000000E+00
(PID.TID 0000.0001) %MON extforcing_qsw_sd            =   0.0000000000000E+00
(PID.TID 0000.0001) %MON extforcing_qsw_del2          =   0.0000000000000E+00
(PID.TID 0000.0001) %MON extforcing_empmr_max         =   0.0000000000000E+00
(PID.TID 0000.0001) %MON extforcing_empmr_min         =   0.0000000000000E+00
(PID.TID 0000.0001) %MON extforcing_empmr_mean        =   0.0000000000000E+00
(PID.TID 0000.0001) %MON extforcing_empmr_sd          =   0.0000000000000E+00
(PID.TID 0000.0001) %MON extforcing_empmr_del2        =   0.0000000000000E+00
(PID.TID 0000.0001) %MON extforcing_fu_max            =   2.8798962831497E-01
(PID.TID 0000.0001) %MON extforcing_fu_min            =  -1.9581326544285E-01
(PID.TID 0000.0001) %MON extforcing_fu_mean           =   1.6979139031008E-02
(PID.TID 0000.0001) %MON extforcing_fu_sd             =   9.0367493904055E-02
(PID.TID 0000.0001) %MON extforcing_fu_del2           =   7.4291549741393E-03
(PID.TID 0000.0001) %MON extforcing_fv_max            =   1.8591085970402E-01
(PID.TID 0000.0001) %MON extforcing_fv_min            =  -1.6161646842957E-01
(PID.TID 0000.0001) %MON extforcing_fv_mean           =  -6.4335940603783E-03
(PID.TID 0000.0001) %MON extforcing_fv_sd             =   4.4654100071951E-02
(PID.TID 0000.0001) %MON extforcing_fv_del2           =   4.4367562301529E-03
(PID.TID 0000.0001) %MON advcfl_uvel_max              =   2.7545443425909E-02
(PID.TID 0000.0001) %MON advcfl_vvel_max              =   1.3546360815918E-02
(PID.TID 0000.0001) %MON advcfl_wvel_max              =   1.3524415189462E-01
(PID.TID 0000.0001) %MON advcfl_W_hf_max              =   1.2550287462332E-01
(PID.TID 0000.0001) %MON pe_b_mean                    =   2.5960475347534E-04
(PID.TID 0000.0001) %MON ke_max                       =   1.6630888253113E-02
(PID.TID 0000.0001) %MON ke_mean                      =   2.3759255509299E-04
(PID.TID 0000.0001) %MON ke_vol                       =   1.3226782436723E+18
(PID.TID 0000.0001) %MON vort_r_min                   =  -4.8013416857773E-07
(PID.TID 0000.0001) %MON vort_r_max                   =   4.1091954802513E-07
(PID.TID 0000.0001) %MON vort_a_mean                  =  -2.5205769106254E-05
(PID.TID 0000.0001) %MON vort_a_sd                    =   7.3403350888563E-05
(PID.TID 0000.0001) %MON vort_p_mean                  =  -3.1758669195623E-05
(PID.TID 0000.0001) %MON vort_p_sd                    =   1.3126469110977E-04
(PID.TID 0000.0001) %MON surfExpan_theta_mean         =   6.4885793777443E-06
(PID.TID 0000.0001) %MON surfExpan_salt_mean          =   2.8046181398740E-07
(PID.TID 0000.0001) // =======================================================
(PID.TID 0000.0001) // End MONITOR dynamic field statistics
(PID.TID 0000.0001) // =======================================================
time,SST,SSS,fu,fv,Q,E-P,i0,i1,a,b =   2.8944E+06  3.9418E-02  3.4534E+01 -2.2561E-02 -3.2824E-02  2.5018E+02  0.0000E+00     1     2  6.1667E-01  3.8333E-01
time,fu0,fu1,fu =   2.8944E+06 -3.5633E-02 -1.4435E-02 -2.2561E-02  6.166666666666667E-01  3.833333333333333E-01
 cg2d: Sum(rhs),rhsMax =   3.22132598373770E-12  9.88731011361942E+00
(PID.TID 0000.0001)                    cg2d_init_res =    4.10661833138870E-01
(PID.TID 0000.0001)                       cg2d_iters =    24
(PID.TID 0000.0001)                         cg2d_res =    7.17031280096290E-14
(PID.TID 0000.0001) // =======================================================
(PID.TID 0000.0001) // Begin MONITOR dynamic field statistics
(PID.TID 0000.0001) // =======================================================
(PID.TID 0000.0001) %MON time_tsnumber                =                    68
(PID.TID 0000.0001) %MON time_secondsf                =   2.9376000000000E+06
(PID.TID 0000.0001) %MON dynstat_eta_max              =   1.1739877783852E+00
(PID.TID 0000.0001) %MON dynstat_eta_min              =  -1.3353738901695E+00
(PID.TID 0000.0001) %MON dynstat_eta_mean             =  -2.2297321536139E-15
(PID.TID 0000.0001) %MON dynstat_eta_sd               =   4.5048441080431E-01
(PID.TID 0000.0001) %MON dynstat_eta_del2             =   2.5173771265779E-02
(PID.TID 0000.0001) %MON dynstat_uvel_max             =   1.8510983396773E-01
(PID.TID 0000.0001) %MON dynstat_uvel_min             =  -1.5124089614955E-01
(PID.TID 0000.0001) %MON dynstat_uvel_mean            =   1.6720925671583E-04
(PID.TID 0000.0001) %MON dynstat_uvel_sd              =   1.7735280690314E-02
(PID.TID 0000.0001) %MON dynstat_uvel_del2            =   3.6050046277359E-03
(PID.TID 0000.0001) %MON dynstat_vvel_max             =   1.4499242859289E-01
(PID.TID 0000.0001) %MON dynstat_vvel_min             =  -1.2975563587184E-01
(PID.TID 0000.0001) %MON dynstat_vvel_mean            =  -1.8064542383863E-03
(PID.TID 0000.0001) %MON dynstat_vvel_sd              =   1.4464235965332E-02
(PID.TID 0000.0001) %MON dynstat_vvel_del2            =   3.4972346340768E-03
(PID.TID 0000.0001) %MON dynstat_wvel_max             =   1.9715044398024E-04
(PID.TID 0000.0001) %MON dynstat_wvel_min             =  -2.0323113270431E-04
(PID.TID 0000.0001) %MON dynstat_wvel_mean            =  -1.7433208237433E-22
(PID.TID 0000.0001) %MON dynstat_wvel_sd              =   2.1547659958926E-05
(PID.TID 0000.0001) %MON dynstat_wvel_del2            =   7.2728890478453E-06
(PID.TID 0000.0001) %MON dynstat_theta_max            =   2.9539094627103E+01
(PID.TID 0000.0001) %MON dynstat_theta_min            =  -2.0292812439623E+00
(PID.TID 0000.0001) %MON dynstat_theta_mean           =   3.5894041861486E+00
(PID.TID 0000.0001) %MON dynstat_theta_sd             =   4.3401142614269E+00
(PID.TID 0000.0001) %MON dynstat_theta_del2           =   1.3716521227585E-01
(PID.TID 0000.0001) %MON dynstat_salt_max             =   3.7391841652769E+01
(PID.TID 0000.0001) %MON dynstat_salt_min             =   2.9866285906578E+01
(PID.TID 0000.0001) %MON dynstat_salt_mean            =   3.4716015790924E+01
(PID.TID 0000.0001) %MON dynstat_salt_sd              =   2.9555860722027E-01
(PID.TID 0000.0001) %MON dynstat_salt_del2            =   2.5541971519994E-02
(PID.TID 0000.0001) %MON dynstat_sst_max              =   2.9539094627103E+01
(PID.TID 0000.0001) %MON dynstat_sst_min              =  -1.9405645154726E+00
(PID.TID 0000.0001) %MON dynstat_sst_mean             =   1.8622397954763E+01
(PID.TID 0000.0001) %MON dynstat_sst_sd               =   8.8851258883183E+00
(PID.TID 0000.0001) %MON dynstat_sst_del2             =   2.7139953236196E-01
(PID.TID 0000.0001) %MON dynstat_sss_max              =   3.7391840363785E+01
(PID.TID 0000.0001) %MON dynstat_sss_min              =   2.9866285906578E+01
(PID.TID 0000.0001) %MON dynstat_sss_mean             =   3.4844923161584E+01
(PID.TID 0000.0001) %MON dynstat_sss_sd               =   9.6161490414547E-01
(PID.TID 0000.0001) %MON dynstat_sss_del2             =   8.0064715257430E-02
(PID.TID 0000.0001) %MON extforcing_qnet_max          =   3.8021051279704E+02
(PID.TID 0000.0001) %MON extforcing_qnet_min          =  -1.7558844045003E+02
(PID.TID 0000.0001) %MON extforcing_qnet_mean         =  -1.4941706404082E+01
(PID.TID 0000.0001) %MON extforcing_qnet_sd           =   9.0594027042371E+01
(PID.TID 0000.0001) %MON extforcing_qnet_del2         =   8.8647641512620E+00
(PID.TID 0000.0001) %MON extforcing_qsw_max           =   0.0000000000000E+00
(PID.TID 0000.0001) %MON extforcing_qsw_min           =   0.0000000000000E+00
(PID.TID 0000.0001) %MON extforcing_qsw_mean          =   0.0000000000000E+00
(PID.TID 0000.0001) %MON extforcing_qsw_sd            =   0.0000000000000E+00
(PID.TID 0000.0001) %MON extforcing_qsw_del2          =   0.0000000000000E+00
(PID.TID 0000.0001) %MON extforcing_empmr_max         =   0.0000000000000E+00
(PID.TID 0000.0001) %MON extforcing_empmr_min         =   0.0000000000000E+00
(PID.TID 0000.0001) %MON extforcing_empmr_mean        =   0.0000000000000E+00
(PID.TID 0000.0001) %MON extforcing_empmr_sd          =   0.0000000000000E+00
(PID.TID 0000.0001) %MON extforcing_empmr_del2        =   0.0000000000000E+00
(PID.TID 0000.0001) %MON extforcing_fu_max            =   2.8868320733309E-01
(PID.TID 0000.0001) %MON extforcing_fu_min            =  -1.9664322733879E-01
(PID.TID 0000.0001) %MON extforcing_fu_mean           =   1.7006289138742E-02
(PID.TID 0000.0001) %MON extforcing_fu_sd             =   9.0429051706515E-02
(PID.TID 0000.0001) %MON extforcing_fu_del2           =   7.4446320345209E-03
(PID.TID 0000.0001) %MON extforcing_fv_max            =   1.8536009937525E-01
(PID.TID 0000.0001) %MON extforcing_fv_min            =  -1.6320241789023E-01
(PID.TID 0000.0001) %MON extforcing_fv_mean           =  -6.4662245137358E-03
(PID.TID 0000.0001) %MON extforcing_fv_sd             =   4.4624538044854E-02
(PID.TID 0000.0001) %MON extforcing_fv_del2           =   4.4519587535645E-03
(PID.TID 0000.0001) %MON advcfl_uvel_max              =   2.6999859636559E-02
(PID.TID 0000.0001) %MON advcfl_vvel_max              =   1.4084851738308E-02
(PID.TID 0000.0001) %MON advcfl_wvel_max              =   1.4564284014926E-01
(PID.TID 0000.0001) %MON advcfl_W_hf_max              =   1.2779921619925E-01
(PID.TID 0000.0001) %MON pe_b_mean                    =   2.5968133397646E-04
(PID.TID 0000.0001) %MON ke_max                       =   1.7433020911080E-02
(PID.TID 0000.0001) %MON ke_mean                      =   2.3830348569739E-04
(PID.TID 0000.0001) %MON ke_vol                       =   1.3226782436723E+18
(PID.TID 0000.0001) %MON vort_r_min                   =  -4.8014486437439E-07
(PID.TID 0000.0001) %MON vort_r_max                   =   4.1206164576270E-07
(PID.TID 0000.0001) %MON vort_a_mean                  =  -2.5205769086843E-05
(PID.TID 0000.0001) %MON vort_a_sd                    =   7.3403378993680E-05
(PID.TID 0000.0001) %MON vort_p_mean                  =  -3.1758669171166E-05
(PID.TID 0000.0001) %MON vort_p_sd                    =   1.3126470572844E-04
(PID.TID 0000.0001) %MON surfExpan_theta_mean         =   5.6736127644086E-06
(PID.TID 0000.0001) %MON surfExpan_salt_mean          =   3.6276168184504E-07
(PID.TID 0000.0001) // =======================================================
(PID.TID 0000.0001) // End MONITOR dynamic field statistics
(PID.TID 0000.0001) // =======================================================
time,SST,SSS,fu,fv,Q,E-P,i0,i1,a,b =   2.9376E+06  1.4580E-02  3.4529E+01 -2.2207E-02 -3.2163E-02  2.4975E+02  0.0000E+00     1     2  6.3333E-01  3.6667E-01
time,fu0,fu1,fu =   2.9376E+06 -3.5633E-02 -1.4435E-02 -2.2207E-02  6.333333333333333E-01  3.666666666666667E-01
 cg2d: Sum(rhs),rhsMax =   3.32062155550261E-12  8.98660455023796E+00
(PID.TID 0000.0001)                    cg2d_init_res =    4.64150870274614E-01
(PID.TID 0000.0001)                       cg2d_iters =    24
(PID.TID 0000.0001)                         cg2d_res =    8.05735745549996E-14
(PID.TID 0000.0001) // =======================================================
(PID.TID 0000.0001) // Begin MONITOR dynamic field statistics
(PID.TID 0000.0001) // =======================================================
(PID.TID 0000.0001) %MON time_tsnumber                =                    69
(PID.TID 0000.0001) %MON time_secondsf                =   2.9808000000000E+06
(PID.TID 0000.0001) %MON dynstat_eta_max              =   1.0688421965113E+00
(PID.TID 0000.0001) %MON dynstat_eta_min              =  -1.3346184502059E+00
(PID.TID 0000.0001) %MON dynstat_eta_mean             =  -1.9842694521018E-15
(PID.TID 0000.0001) %MON dynstat_eta_sd               =   4.5048857766616E-01
(PID.TID 0000.0001) %MON dynstat_eta_del2             =   2.4998685243690E-02
(PID.TID 0000.0001) %MON dynstat_uvel_max             =   1.8774932183958E-01
(PID.TID 0000.0001) %MON dynstat_uvel_min             =  -1.5079287026988E-01
(PID.TID 0000.0001) %MON dynstat_uvel_mean            =   3.2016800287097E-04
(PID.TID 0000.0001) %MON dynstat_uvel_sd              =   1.7746098647334E-02
(PID.TID 0000.0001) %MON dynstat_uvel_del2            =   3.6128389862334E-03
(PID.TID 0000.0001) %MON dynstat_vvel_max             =   1.4983339222412E-01
(PID.TID 0000.0001) %MON dynstat_vvel_min             =  -1.2843853667113E-01
(PID.TID 0000.0001) %MON dynstat_vvel_mean            =  -1.7713945716890E-03
(PID.TID 0000.0001) %MON dynstat_vvel_sd              =   1.4461399375549E-02
(PID.TID 0000.0001) %MON dynstat_vvel_del2            =   3.5123830631691E-03
(PID.TID 0000.0001) %MON dynstat_wvel_max             =   1.8964529276638E-04
(PID.TID 0000.0001) %MON dynstat_wvel_min             =  -1.9725450451997E-04
(PID.TID 0000.0001) %MON dynstat_wvel_mean            =   1.9799151832842E-22
(PID.TID 0000.0001) %MON dynstat_wvel_sd              =   2.1530745867921E-05
(PID.TID 0000.0001) %MON dynstat_wvel_del2            =   7.2733170245122E-06
(PID.TID 0000.0001) %MON dynstat_theta_max            =   2.9504409320681E+01
(PID.TID 0000.0001) %MON dynstat_theta_min            =  -2.0297021620856E+00
(PID.TID 0000.0001) %MON dynstat_theta_mean           =   3.5893830345215E+00
(PID.TID 0000.0001) %MON dynstat_theta_sd             =   4.3402000253242E+00
(PID.TID 0000.0001) %MON dynstat_theta_del2           =   1.3713950595816E-01
(PID.TID 0000.0001) %MON dynstat_salt_max             =   3.7391212885275E+01
(PID.TID 0000.0001) %MON dynstat_salt_min             =   2.9867991203851E+01
(PID.TID 0000.0001) %MON dynstat_salt_mean            =   3.4716011320236E+01
(PID.TID 0000.0001) %MON dynstat_salt_sd              =   2.9557740956621E-01
(PID.TID 0000.0001) %MON dynstat_salt_del2            =   2.5538111401005E-02
(PID.TID 0000.0001) %MON dynstat_sst_max              =   2.9504409320681E+01
(PID.TID 0000.0001) %MON dynstat_sst_min              =  -1.9394365273803E+00
(PID.TID 0000.0001) %MON dynstat_sst_mean             =   1.8625405313892E+01
(PID.TID 0000.0001) %MON dynstat_sst_sd               =   8.8864272562654E+00
(PID.TID 0000.0001) %MON dynstat_sst_del2             =   2.7103809643104E-01
(PID.TID 0000.0001) %MON dynstat_sss_max              =   3.7391211532842E+01
(PID.TID 0000.0001) %MON dynstat_sss_min              =   2.9867991203851E+01
(PID.TID 0000.0001) %MON dynstat_sss_mean             =   3.4844905140217E+01
(PID.TID 0000.0001) %MON dynstat_sss_sd               =   9.6135629499714E-01
(PID.TID 0000.0001) %MON dynstat_sss_del2             =   7.9999584872121E-02
(PID.TID 0000.0001) %MON extforcing_qnet_max          =   3.7855096944173E+02
(PID.TID 0000.0001) %MON extforcing_qnet_min          =  -1.7546868082682E+02
(PID.TID 0000.0001) %MON extforcing_qnet_mean         =  -1.4899251820380E+01
(PID.TID 0000.0001) %MON extforcing_qnet_sd           =   9.0096938655160E+01
(PID.TID 0000.0001) %MON extforcing_qnet_del2         =   8.8484299812626E+00
(PID.TID 0000.0001) %MON extforcing_qsw_max           =   0.0000000000000E+00
(PID.TID 0000.0001) %MON extforcing_qsw_min           =   0.0000000000000E+00
(PID.TID 0000.0001) %MON extforcing_qsw_mean          =   0.0000000000000E+00
(PID.TID 0000.0001) %MON extforcing_qsw_sd            =   0.0000000000000E+00
(PID.TID 0000.0001) %MON extforcing_qsw_del2          =   0.0000000000000E+00
(PID.TID 0000.0001) %MON extforcing_empmr_max         =   0.0000000000000E+00
(PID.TID 0000.0001) %MON extforcing_empmr_min         =   0.0000000000000E+00
(PID.TID 0000.0001) %MON extforcing_empmr_mean        =   0.0000000000000E+00
(PID.TID 0000.0001) %MON extforcing_empmr_sd          =   0.0000000000000E+00
(PID.TID 0000.0001) %MON extforcing_empmr_del2        =   0.0000000000000E+00
(PID.TID 0000.0001) %MON extforcing_fu_max            =   2.8937678635120E-01
(PID.TID 0000.0001) %MON extforcing_fu_min            =  -1.9747318923473E-01
(PID.TID 0000.0001) %MON extforcing_fu_mean           =   1.7033439246477E-02
(PID.TID 0000.0001) %MON extforcing_fu_sd             =   9.0494937497899E-02
(PID.TID 0000.0001) %MON extforcing_fu_del2           =   7.4606105549812E-03
(PID.TID 0000.0001) %MON extforcing_fv_max            =   1.8480933904648E-01
(PID.TID 0000.0001) %MON extforcing_fv_min            =  -1.6478836735090E-01
(PID.TID 0000.0001) %MON extforcing_fv_mean           =  -6.4988549670934E-03
(PID.TID 0000.0001) %MON extforcing_fv_sd             =   4.4598978531363E-02
(PID.TID 0000.0001) %MON extforcing_fv_del2           =   4.4684511653714E-03
(PID.TID 0000.0001) %MON advcfl_uvel_max              =   2.6255123127806E-02
(PID.TID 0000.0001) %MON advcfl_vvel_max              =   1.4555112535222E-02
(PID.TID 0000.0001) %MON advcfl_wvel_max              =   1.5140963789836E-01
(PID.TID 0000.0001) %MON advcfl_W_hf_max              =   1.2722706685256E-01
(PID.TID 0000.0001) %MON pe_b_mean                    =   2.5968613796622E-04
(PID.TID 0000.0001) %MON ke_max                       =   1.8091321344987E-02
(PID.TID 0000.0001) %MON ke_mean                      =   2.3841858616401E-04
(PID.TID 0000.0001) %MON ke_vol                       =   1.3226782436723E+18
(PID.TID 0000.0001) %MON vort_r_min                   =  -4.8103485658856E-07
(PID.TID 0000.0001) %MON vort_r_max                   =   4.2005080034962E-07
(PID.TID 0000.0001) %MON vort_a_mean                  =  -2.5205769068485E-05
(PID.TID 0000.0001) %MON vort_a_sd                    =   7.3403406513901E-05
(PID.TID 0000.0001) %MON vort_p_mean                  =  -3.1758669148035E-05
(PID.TID 0000.0001) %MON vort_p_sd                    =   1.3126471840151E-04
(PID.TID 0000.0001) %MON surfExpan_theta_mean         =   4.9514670697107E-06
(PID.TID 0000.0001) %MON surfExpan_salt_mean          =   4.2842950953843E-07
(PID.TID 0000.0001) // =======================================================
(PID.TID 0000.0001) // End MONITOR dynamic field statistics
(PID.TID 0000.0001) // =======================================================
time,SST,SSS,fu,fv,Q,E-P,i0,i1,a,b =   2.9808E+06 -1.0258E-02  3.4524E+01 -2.1854E-02 -3.1503E-02  2.4933E+02  0.0000E+00     1     2  6.5000E-01  3.5000E-01
time,fu0,fu1,fu =   2.9808E+06 -3.5633E-02 -1.4435E-02 -2.1854E-02  6.500000000000000E-01  3.500000000000000E-01
 cg2d: Sum(rhs),rhsMax =   3.82152642863787E-12  8.07892777323990E+00
(PID.TID 0000.0001)                    cg2d_init_res =    5.27115180328726E-01
(PID.TID 0000.0001)                       cg2d_iters =    24
(PID.TID 0000.0001)                         cg2d_res =    8.69361821101752E-14
(PID.TID 0000.0001) // =======================================================
(PID.TID 0000.0001) // Begin MONITOR dynamic field statistics
(PID.TID 0000.0001) // =======================================================
(PID.TID 0000.0001) %MON time_tsnumber                =                    70
(PID.TID 0000.0001) %MON time_secondsf                =   3.0240000000000E+06
(PID.TID 0000.0001) %MON dynstat_eta_max              =   9.6284959268848E-01
(PID.TID 0000.0001) %MON dynstat_eta_min              =  -1.3352460462731E+00
(PID.TID 0000.0001) %MON dynstat_eta_mean             =  -1.6198642124662E-15
(PID.TID 0000.0001) %MON dynstat_eta_sd               =   4.5047739028533E-01
(PID.TID 0000.0001) %MON dynstat_eta_del2             =   2.4851926118376E-02
(PID.TID 0000.0001) %MON dynstat_uvel_max             =   1.8953428391529E-01
(PID.TID 0000.0001) %MON dynstat_uvel_min             =  -1.5016555573065E-01
(PID.TID 0000.0001) %MON dynstat_uvel_mean            =   4.6901262648680E-04
(PID.TID 0000.0001) %MON dynstat_uvel_sd              =   1.7711586357224E-02
(PID.TID 0000.0001) %MON dynstat_uvel_del2            =   3.6111728103128E-03
(PID.TID 0000.0001) %MON dynstat_vvel_max             =   1.5391142317845E-01
(PID.TID 0000.0001) %MON dynstat_vvel_min             =  -1.2664017600396E-01
(PID.TID 0000.0001) %MON dynstat_vvel_mean            =  -1.7226111966500E-03
(PID.TID 0000.0001) %MON dynstat_vvel_sd              =   1.4466072172128E-02
(PID.TID 0000.0001) %MON dynstat_vvel_del2            =   3.5241422129935E-03
(PID.TID 0000.0001) %MON dynstat_wvel_max             =   1.8966891848762E-04
(PID.TID 0000.0001) %MON dynstat_wvel_min             =  -1.9030695852008E-04
(PID.TID 0000.0001) %MON dynstat_wvel_mean            =  -9.8507202706798E-22
(PID.TID 0000.0001) %MON dynstat_wvel_sd              =   2.1489015634039E-05
(PID.TID 0000.0001) %MON dynstat_wvel_del2            =   7.2459249098513E-06
(PID.TID 0000.0001) %MON dynstat_theta_max            =   2.9502825193580E+01
(PID.TID 0000.0001) %MON dynstat_theta_min            =  -2.0301006929747E+00
(PID.TID 0000.0001) %MON dynstat_theta_mean           =   3.5893692954062E+00
(PID.TID 0000.0001) %MON dynstat_theta_sd             =   4.3403132349673E+00
(PID.TID 0000.0001) %MON dynstat_theta_del2           =   1.3715200039887E-01
(PID.TID 0000.0001) %MON dynstat_salt_max             =   3.7390682771228E+01
(PID.TID 0000.0001) %MON dynstat_salt_min             =   2.9869702422240E+01
(PID.TID 0000.0001) %MON dynstat_salt_mean            =   3.4716006227142E+01
(PID.TID 0000.0001) %MON dynstat_salt_sd              =   2.9558975061856E-01
(PID.TID 0000.0001) %MON dynstat_salt_del2            =   2.5537647712726E-02
(PID.TID 0000.0001) %MON dynstat_sst_max              =   2.9502825193580E+01
(PID.TID 0000.0001) %MON dynstat_sst_min              =  -1.9382398781027E+00
(PID.TID 0000.0001) %MON dynstat_sst_mean             =   1.8628065810358E+01
(PID.TID 0000.0001) %MON dynstat_sst_sd               =   8.8882156415581E+00
(PID.TID 0000.0001) %MON dynstat_sst_del2             =   2.7089423574566E-01
(PID.TID 0000.0001) %MON dynstat_sss_max              =   3.7390681342162E+01
(PID.TID 0000.0001) %MON dynstat_sss_min              =   2.9869702422240E+01
(PID.TID 0000.0001) %MON dynstat_sss_mean             =   3.4844814159524E+01
(PID.TID 0000.0001) %MON dynstat_sss_sd               =   9.6114112486206E-01
(PID.TID 0000.0001) %MON dynstat_sss_del2             =   7.9974145887011E-02
(PID.TID 0000.0001) %MON extforcing_qnet_max          =   3.7689142608643E+02
(PID.TID 0000.0001) %MON extforcing_qnet_min          =  -1.7534892120361E+02
(PID.TID 0000.0001) %MON extforcing_qnet_mean         =  -1.4856797236679E+01
(PID.TID 0000.0001) %MON extforcing_qnet_sd           =   8.9601390510394E+01
(PID.TID 0000.0001) %MON extforcing_qnet_del2         =   8.8324008286550E+00
(PID.TID 0000.0001) %MON extforcing_qsw_max           =   0.0000000000000E+00
(PID.TID 0000.0001) %MON extforcing_qsw_min           =   0.0000000000000E+00
(PID.TID 0000.0001) %MON extforcing_qsw_mean          =   0.0000000000000E+00
(PID.TID 0000.0001) %MON extforcing_qsw_sd            =   0.0000000000000E+00
(PID.TID 0000.0001) %MON extforcing_qsw_del2          =   0.0000000000000E+00
(PID.TID 0000.0001) %MON extforcing_empmr_max         =   0.0000000000000E+00
(PID.TID 0000.0001) %MON extforcing_empmr_min         =   0.0000000000000E+00
(PID.TID 0000.0001) %MON extforcing_empmr_mean        =   0.0000000000000E+00
(PID.TID 0000.0001) %MON extforcing_empmr_sd          =   0.0000000000000E+00
(PID.TID 0000.0001) %MON extforcing_empmr_del2        =   0.0000000000000E+00
(PID.TID 0000.0001) %MON extforcing_fu_max            =   2.9007036536932E-01
(PID.TID 0000.0001) %MON extforcing_fu_min            =  -1.9830315113068E-01
(PID.TID 0000.0001) %MON extforcing_fu_mean           =   1.7060589354211E-02
(PID.TID 0000.0001) %MON extforcing_fu_sd             =   9.0565141832423E-02
(PID.TID 0000.0001) %MON extforcing_fu_del2           =   7.4777725644831E-03
(PID.TID 0000.0001) %MON extforcing_fv_max            =   1.8425857871771E-01
(PID.TID 0000.0001) %MON extforcing_fv_min            =  -1.6637431681156E-01
(PID.TID 0000.0001) %MON extforcing_fv_mean           =  -6.5314854204510E-03
(PID.TID 0000.0001) %MON extforcing_fv_sd             =   4.4577428416283E-02
(PID.TID 0000.0001) %MON extforcing_fv_del2           =   4.4860367169734E-03
(PID.TID 0000.0001) %MON advcfl_uvel_max              =   2.6504734676956E-02
(PID.TID 0000.0001) %MON advcfl_vvel_max              =   1.4951260540557E-02
(PID.TID 0000.0001) %MON advcfl_wvel_max              =   1.5262934950490E-01
(PID.TID 0000.0001) %MON advcfl_W_hf_max              =   1.2380001843049E-01
(PID.TID 0000.0001) %MON pe_b_mean                    =   2.5967324009581E-04
(PID.TID 0000.0001) %MON ke_max                       =   1.8598766714963E-02
(PID.TID 0000.0001) %MON ke_mean                      =   2.3790015774293E-04
(PID.TID 0000.0001) %MON ke_vol                       =   1.3226782436723E+18
(PID.TID 0000.0001) %MON vort_r_min                   =  -4.8266069395681E-07
(PID.TID 0000.0001) %MON vort_r_max                   =   4.2571508665769E-07
(PID.TID 0000.0001) %MON vort_a_mean                  =  -2.5205769054656E-05
(PID.TID 0000.0001) %MON vort_a_sd                    =   7.3403433290031E-05
(PID.TID 0000.0001) %MON vort_p_mean                  =  -3.1758669130611E-05
(PID.TID 0000.0001) %MON vort_p_sd                    =   1.3126472900891E-04
(PID.TID 0000.0001) %MON surfExpan_theta_mean         =   4.3274880924799E-06
(PID.TID 0000.0001) %MON surfExpan_salt_mean          =   4.7435891225202E-07
(PID.TID 0000.0001) // =======================================================
(PID.TID 0000.0001) // End MONITOR dynamic field statistics
(PID.TID 0000.0001) // =======================================================
time,SST,SSS,fu,fv,Q,E-P,i0,i1,a,b =   3.0240E+06 -3.5096E-02  3.4519E+01 -2.1501E-02 -3.0843E-02  2.4891E+02  0.0000E+00     1     2  6.6667E-01  3.3333E-01
time,fu0,fu1,fu =   3.0240E+06 -3.5633E-02 -1.4435E-02 -2.1501E-02  6.666666666666666E-01  3.333333333333334E-01
 cg2d: Sum(rhs),rhsMax =   3.65094066090421E-12  7.98205083736768E+00
(PID.TID 0000.0001)                    cg2d_init_res =    5.39676385272403E-01
(PID.TID 0000.0001)                       cg2d_iters =    24
(PID.TID 0000.0001)                         cg2d_res =    7.71442801598099E-14
(PID.TID 0000.0001) // =======================================================
(PID.TID 0000.0001) // Begin MONITOR dynamic field statistics
(PID.TID 0000.0001) // =======================================================
(PID.TID 0000.0001) %MON time_tsnumber                =                    71
(PID.TID 0000.0001) %MON time_secondsf                =   3.0672000000000E+06
(PID.TID 0000.0001) %MON dynstat_eta_max              =   8.7688892892326E-01
(PID.TID 0000.0001) %MON dynstat_eta_min              =  -1.3376866652680E+00
(PID.TID 0000.0001) %MON dynstat_eta_mean             =  -1.6777966080498E-15
(PID.TID 0000.0001) %MON dynstat_eta_sd               =   4.5049425826687E-01
(PID.TID 0000.0001) %MON dynstat_eta_del2             =   2.4739056128685E-02
(PID.TID 0000.0001) %MON dynstat_uvel_max             =   1.9131572631352E-01
(PID.TID 0000.0001) %MON dynstat_uvel_min             =  -1.4990486600049E-01
(PID.TID 0000.0001) %MON dynstat_uvel_mean            =   6.1301477097472E-04
(PID.TID 0000.0001) %MON dynstat_uvel_sd              =   1.7632524199363E-02
(PID.TID 0000.0001) %MON dynstat_uvel_del2            =   3.6019225028883E-03
(PID.TID 0000.0001) %MON dynstat_vvel_max             =   1.5717680557853E-01
(PID.TID 0000.0001) %MON dynstat_vvel_min             =  -1.2442626470732E-01
(PID.TID 0000.0001) %MON dynstat_vvel_mean            =  -1.6625955350883E-03
(PID.TID 0000.0001) %MON dynstat_vvel_sd              =   1.4475232649208E-02
(PID.TID 0000.0001) %MON dynstat_vvel_del2            =   3.5317234499072E-03
(PID.TID 0000.0001) %MON dynstat_wvel_max             =   1.9249279545069E-04
(PID.TID 0000.0001) %MON dynstat_wvel_min             =  -1.8253668185768E-04
(PID.TID 0000.0001) %MON dynstat_wvel_mean            =  -4.5743105306114E-22
(PID.TID 0000.0001) %MON dynstat_wvel_sd              =   2.1409958444732E-05
(PID.TID 0000.0001) %MON dynstat_wvel_del2            =   7.2009686849183E-06
(PID.TID 0000.0001) %MON dynstat_theta_max            =   2.9502767812404E+01
(PID.TID 0000.0001) %MON dynstat_theta_min            =  -2.0304712613360E+00
(PID.TID 0000.0001) %MON dynstat_theta_mean           =   3.5893618449237E+00
(PID.TID 0000.0001) %MON dynstat_theta_sd             =   4.3404489040601E+00
(PID.TID 0000.0001) %MON dynstat_theta_del2           =   1.3720152985639E-01
(PID.TID 0000.0001) %MON dynstat_salt_max             =   3.7390251989895E+01
(PID.TID 0000.0001) %MON dynstat_salt_min             =   2.9871397322910E+01
(PID.TID 0000.0001) %MON dynstat_salt_mean            =   3.4716000754702E+01
(PID.TID 0000.0001) %MON dynstat_salt_sd              =   2.9559597773169E-01
(PID.TID 0000.0001) %MON dynstat_salt_del2            =   2.5539155994949E-02
(PID.TID 0000.0001) %MON dynstat_sst_max              =   2.9502767812404E+01
(PID.TID 0000.0001) %MON dynstat_sst_min              =  -1.9369868443511E+00
(PID.TID 0000.0001) %MON dynstat_sst_mean             =   1.8630471862656E+01
(PID.TID 0000.0001) %MON dynstat_sst_sd               =   8.8903712939233E+00
(PID.TID 0000.0001) %MON dynstat_sst_del2             =   2.7080472005613E-01
(PID.TID 0000.0001) %MON dynstat_sss_max              =   3.7390250484743E+01
(PID.TID 0000.0001) %MON dynstat_sss_min              =   2.9871397322910E+01
(PID.TID 0000.0001) %MON dynstat_sss_mean             =   3.4844678968952E+01
(PID.TID 0000.0001) %MON dynstat_sss_sd               =   9.6093090095386E-01
(PID.TID 0000.0001) %MON dynstat_sss_del2             =   7.9938944263394E-02
(PID.TID 0000.0001) %MON extforcing_qnet_max          =   3.7523188273112E+02
(PID.TID 0000.0001) %MON extforcing_qnet_min          =  -1.7522916158040E+02
(PID.TID 0000.0001) %MON extforcing_qnet_mean         =  -1.4814342652977E+01
(PID.TID 0000.0001) %MON extforcing_qnet_sd           =   8.9107408305075E+01
(PID.TID 0000.0001) %MON extforcing_qnet_del2         =   8.8165780882727E+00
(PID.TID 0000.0001) %MON extforcing_qsw_max           =   0.0000000000000E+00
(PID.TID 0000.0001) %MON extforcing_qsw_min           =   0.0000000000000E+00
(PID.TID 0000.0001) %MON extforcing_qsw_mean          =   0.0000000000000E+00
(PID.TID 0000.0001) %MON extforcing_qsw_sd            =   0.0000000000000E+00
(PID.TID 0000.0001) %MON extforcing_qsw_del2          =   0.0000000000000E+00
(PID.TID 0000.0001) %MON extforcing_empmr_max         =   0.0000000000000E+00
(PID.TID 0000.0001) %MON extforcing_empmr_min         =   0.0000000000000E+00
(PID.TID 0000.0001) %MON extforcing_empmr_mean        =   0.0000000000000E+00
(PID.TID 0000.0001) %MON extforcing_empmr_sd          =   0.0000000000000E+00
(PID.TID 0000.0001) %MON extforcing_empmr_del2        =   0.0000000000000E+00
(PID.TID 0000.0001) %MON extforcing_fu_max            =   2.9076394438744E-01
(PID.TID 0000.0001) %MON extforcing_fu_min            =  -1.9913311302662E-01
(PID.TID 0000.0001) %MON extforcing_fu_mean           =   1.7087739461946E-02
(PID.TID 0000.0001) %MON extforcing_fu_sd             =   9.0639654675392E-02
(PID.TID 0000.0001) %MON extforcing_fu_del2           =   7.4954349704995E-03
(PID.TID 0000.0001) %MON extforcing_fv_max            =   1.8370781838894E-01
(PID.TID 0000.0001) %MON extforcing_fv_min            =  -1.6796026627223E-01
(PID.TID 0000.0001) %MON extforcing_fv_mean           =  -6.5641158738086E-03
(PID.TID 0000.0001) %MON extforcing_fv_sd             =   4.4559893516707E-02
(PID.TID 0000.0001) %MON extforcing_fv_del2           =   4.5047131381847E-03
(PID.TID 0000.0001) %MON advcfl_uvel_max              =   2.6753854029572E-02
(PID.TID 0000.0001) %MON advcfl_vvel_max              =   1.5268466255507E-02
(PID.TID 0000.0001) %MON advcfl_wvel_max              =   1.4951683284162E-01
(PID.TID 0000.0001) %MON advcfl_W_hf_max              =   1.2211954337413E-01
(PID.TID 0000.0001) %MON pe_b_mean                    =   2.5969268722244E-04
(PID.TID 0000.0001) %MON ke_max                       =   1.8951930918612E-02
(PID.TID 0000.0001) %MON ke_mean                      =   2.3672922905858E-04
(PID.TID 0000.0001) %MON ke_vol                       =   1.3226782436723E+18
(PID.TID 0000.0001) %MON vort_r_min                   =  -4.8482941107742E-07
(PID.TID 0000.0001) %MON vort_r_max                   =   4.2895998871709E-07
(PID.TID 0000.0001) %MON vort_a_mean                  =  -2.5205769043806E-05
(PID.TID 0000.0001) %MON vort_a_sd                    =   7.3403459219799E-05
(PID.TID 0000.0001) %MON vort_p_mean                  =  -3.1758669116940E-05
(PID.TID 0000.0001) %MON vort_p_sd                    =   1.3126473772553E-04
(PID.TID 0000.0001) %MON surfExpan_theta_mean         =   3.8173139111046E-06
(PID.TID 0000.0001) %MON surfExpan_salt_mean          =   5.0036075131266E-07
(PID.TID 0000.0001) // =======================================================
(PID.TID 0000.0001) // End MONITOR dynamic field statistics
(PID.TID 0000.0001) // =======================================================
time,SST,SSS,fu,fv,Q,E-P,i0,i1,a,b =   3.0672E+06 -5.9934E-02  3.4514E+01 -2.1147E-02 -3.0182E-02  2.4849E+02  0.0000E+00     1     2  6.8333E-01  3.1667E-01
time,fu0,fu1,fu =   3.0672E+06 -3.5633E-02 -1.4435E-02 -2.1147E-02  6.833333333333333E-01  3.166666666666667E-01
 cg2d: Sum(rhs),rhsMax =   3.21399851177517E-12  8.00388390172107E+00
(PID.TID 0000.0001)                    cg2d_init_res =    5.38372443086712E-01
(PID.TID 0000.0001)                       cg2d_iters =    24
(PID.TID 0000.0001)                         cg2d_res =    4.31016901543081E-14
(PID.TID 0000.0001) // =======================================================
(PID.TID 0000.0001) // Begin MONITOR dynamic field statistics
(PID.TID 0000.0001) // =======================================================
(PID.TID 0000.0001) %MON time_tsnumber                =                    72
(PID.TID 0000.0001) %MON time_secondsf                =   3.1104000000000E+06
(PID.TID 0000.0001) %MON dynstat_eta_max              =   8.6377404057237E-01
(PID.TID 0000.0001) %MON dynstat_eta_min              =  -1.3413092680928E+00
(PID.TID 0000.0001) %MON dynstat_eta_mean             =  -1.3937665532981E-15
(PID.TID 0000.0001) %MON dynstat_eta_sd               =   4.5057459101233E-01
(PID.TID 0000.0001) %MON dynstat_eta_del2             =   2.4743557256797E-02
(PID.TID 0000.0001) %MON dynstat_uvel_max             =   1.9272010588447E-01
(PID.TID 0000.0001) %MON dynstat_uvel_min             =  -1.4970620582809E-01
(PID.TID 0000.0001) %MON dynstat_uvel_mean            =   7.5141121968295E-04
(PID.TID 0000.0001) %MON dynstat_uvel_sd              =   1.7511206356284E-02
(PID.TID 0000.0001) %MON dynstat_uvel_del2            =   3.5870292629006E-03
(PID.TID 0000.0001) %MON dynstat_vvel_max             =   1.5959079929351E-01
(PID.TID 0000.0001) %MON dynstat_vvel_min             =  -1.2186784948482E-01
(PID.TID 0000.0001) %MON dynstat_vvel_mean            =  -1.5937777713719E-03
(PID.TID 0000.0001) %MON dynstat_vvel_sd              =   1.4485457278933E-02
(PID.TID 0000.0001) %MON dynstat_vvel_del2            =   3.5334081944070E-03
(PID.TID 0000.0001) %MON dynstat_wvel_max             =   1.9452588962261E-04
(PID.TID 0000.0001) %MON dynstat_wvel_min             =  -1.7410946251747E-04
(PID.TID 0000.0001) %MON dynstat_wvel_mean            =  -2.4368186871191E-22
(PID.TID 0000.0001) %MON dynstat_wvel_sd              =   2.1284912673776E-05
(PID.TID 0000.0001) %MON dynstat_wvel_del2            =   7.1396077372806E-06
(PID.TID 0000.0001) %MON dynstat_theta_max            =   2.9504323138738E+01
(PID.TID 0000.0001) %MON dynstat_theta_min            =  -2.0308075402021E+00
(PID.TID 0000.0001) %MON dynstat_theta_mean           =   3.5893593588561E+00
(PID.TID 0000.0001) %MON dynstat_theta_sd             =   4.3406020917243E+00
(PID.TID 0000.0001) %MON dynstat_theta_del2           =   1.3726638537353E-01
(PID.TID 0000.0001) %MON dynstat_salt_max             =   3.7389917582866E+01
(PID.TID 0000.0001) %MON dynstat_salt_min             =   2.9873053140097E+01
(PID.TID 0000.0001) %MON dynstat_salt_mean            =   3.4715995129758E+01
(PID.TID 0000.0001) %MON dynstat_salt_sd              =   2.9559659956237E-01
(PID.TID 0000.0001) %MON dynstat_salt_del2            =   2.5540742639666E-02
(PID.TID 0000.0001) %MON dynstat_sst_max              =   2.9504323138738E+01
(PID.TID 0000.0001) %MON dynstat_sst_min              =  -1.9356895003947E+00
(PID.TID 0000.0001) %MON dynstat_sst_mean             =   1.8632573445471E+01
(PID.TID 0000.0001) %MON dynstat_sst_sd               =   8.8928193012010E+00
(PID.TID 0000.0001) %MON dynstat_sst_del2             =   2.7069886810721E-01
(PID.TID 0000.0001) %MON dynstat_sss_max              =   3.7389916004924E+01
(PID.TID 0000.0001) %MON dynstat_sss_min              =   2.9873053140097E+01
(PID.TID 0000.0001) %MON dynstat_sss_mean             =   3.4844486825655E+01
(PID.TID 0000.0001) %MON dynstat_sss_sd               =   9.6072639332750E-01
(PID.TID 0000.0001) %MON dynstat_sss_del2             =   7.9902664261645E-02
(PID.TID 0000.0001) %MON extforcing_qnet_max          =   3.7357233937581E+02
(PID.TID 0000.0001) %MON extforcing_qnet_min          =  -1.7510940195719E+02
(PID.TID 0000.0001) %MON extforcing_qnet_mean         =  -1.4771888069275E+01
(PID.TID 0000.0001) %MON extforcing_qnet_sd           =   8.8615018227076E+01
(PID.TID 0000.0001) %MON extforcing_qnet_del2         =   8.8013314142142E+00
(PID.TID 0000.0001) %MON extforcing_qsw_max           =   0.0000000000000E+00
(PID.TID 0000.0001) %MON extforcing_qsw_min           =   0.0000000000000E+00
(PID.TID 0000.0001) %MON extforcing_qsw_mean          =   0.0000000000000E+00
(PID.TID 0000.0001) %MON extforcing_qsw_sd            =   0.0000000000000E+00
(PID.TID 0000.0001) %MON extforcing_qsw_del2          =   0.0000000000000E+00
(PID.TID 0000.0001) %MON extforcing_empmr_max         =   0.0000000000000E+00
(PID.TID 0000.0001) %MON extforcing_empmr_min         =   0.0000000000000E+00
(PID.TID 0000.0001) %MON extforcing_empmr_mean        =   0.0000000000000E+00
(PID.TID 0000.0001) %MON extforcing_empmr_sd          =   0.0000000000000E+00
(PID.TID 0000.0001) %MON extforcing_empmr_del2        =   0.0000000000000E+00
(PID.TID 0000.0001) %MON extforcing_fu_max            =   2.9145752340555E-01
(PID.TID 0000.0001) %MON extforcing_fu_min            =  -1.9996307492256E-01
(PID.TID 0000.0001) %MON extforcing_fu_mean           =   1.7114889569680E-02
(PID.TID 0000.0001) %MON extforcing_fu_sd             =   9.0718465410251E-02
(PID.TID 0000.0001) %MON extforcing_fu_del2           =   7.5140591285685E-03
(PID.TID 0000.0001) %MON extforcing_fv_max            =   1.8315705806017E-01
(PID.TID 0000.0001) %MON extforcing_fv_min            =  -1.6954621573289E-01
(PID.TID 0000.0001) %MON extforcing_fv_mean           =  -6.5967463271662E-03
(PID.TID 0000.0001) %MON extforcing_fv_sd             =   4.4546378574191E-02
(PID.TID 0000.0001) %MON extforcing_fv_del2           =   4.5246867484498E-03
(PID.TID 0000.0001) %MON advcfl_uvel_max              =   2.6813634093946E-02
(PID.TID 0000.0001) %MON advcfl_vvel_max              =   1.5502966387015E-02
(PID.TID 0000.0001) %MON advcfl_wvel_max              =   1.4792786577509E-01
(PID.TID 0000.0001) %MON advcfl_W_hf_max              =   1.3654513602088E-01
(PID.TID 0000.0001) %MON pe_b_mean                    =   2.5978531298276E-04
(PID.TID 0000.0001) %MON ke_max                       =   1.9150769346492E-02
(PID.TID 0000.0001) %MON ke_mean                      =   2.3491034876057E-04
(PID.TID 0000.0001) %MON ke_vol                       =   1.3226782436723E+18
(PID.TID 0000.0001) %MON vort_r_min                   =  -4.8730810025998E-07
(PID.TID 0000.0001) %MON vort_r_max                   =   4.2972813877090E-07
(PID.TID 0000.0001) %MON vort_a_mean                  =  -2.5205769035980E-05
(PID.TID 0000.0001) %MON vort_a_sd                    =   7.3403484178100E-05
(PID.TID 0000.0001) %MON vort_p_mean                  =  -3.1758669107080E-05
(PID.TID 0000.0001) %MON vort_p_sd                    =   1.3126474446772E-04
(PID.TID 0000.0001) %MON surfExpan_theta_mean         =   3.4359422626378E-06
(PID.TID 0000.0001) %MON surfExpan_salt_mean          =   5.0722112137312E-07
(PID.TID 0000.0001) // =======================================================
(PID.TID 0000.0001) // End MONITOR dynamic field statistics
(PID.TID 0000.0001) // =======================================================
time,SST,SSS,fu,fv,Q,E-P,i0,i1,a,b =   3.1104E+06 -8.4772E-02  3.4509E+01 -2.0794E-02 -2.9522E-02  2.4807E+02  0.0000E+00     1     2  7.0000E-01  3.0000E-01
time,fu0,fu1,fu =   3.1104E+06 -3.5633E-02 -1.4435E-02 -2.0794E-02  7.000000000000000E-01  3.000000000000000E-01
 cg2d: Sum(rhs),rhsMax =   3.10992898100437E-12  8.02911766220560E+00
(PID.TID 0000.0001)                    cg2d_init_res =    5.30399863534202E-01
(PID.TID 0000.0001)                       cg2d_iters =    24
(PID.TID 0000.0001)                         cg2d_res =    8.10390457619350E-14
(PID.TID 0000.0001) // =======================================================
(PID.TID 0000.0001) // Begin MONITOR dynamic field statistics
(PID.TID 0000.0001) // =======================================================
(PID.TID 0000.0001) %MON time_tsnumber                =                    73
(PID.TID 0000.0001) %MON time_secondsf                =   3.1536000000000E+06
(PID.TID 0000.0001) %MON dynstat_eta_max              =   8.7981268309337E-01
(PID.TID 0000.0001) %MON dynstat_eta_min              =  -1.3520990911077E+00
(PID.TID 0000.0001) %MON dynstat_eta_mean             =  -1.9013188651671E-15
(PID.TID 0000.0001) %MON dynstat_eta_sd               =   4.5074288524133E-01
(PID.TID 0000.0001) %MON dynstat_eta_del2             =   2.4802878024518E-02
(PID.TID 0000.0001) %MON dynstat_uvel_max             =   1.9869529136103E-01
(PID.TID 0000.0001) %MON dynstat_uvel_min             =  -1.4928827229324E-01
(PID.TID 0000.0001) %MON dynstat_uvel_mean            =   8.8339352950415E-04
(PID.TID 0000.0001) %MON dynstat_uvel_sd              =   1.7351268988700E-02
(PID.TID 0000.0001) %MON dynstat_uvel_del2            =   3.5672658325155E-03
(PID.TID 0000.0001) %MON dynstat_vvel_max             =   1.6112581202559E-01
(PID.TID 0000.0001) %MON dynstat_vvel_min             =  -1.1903994223689E-01
(PID.TID 0000.0001) %MON dynstat_vvel_mean            =  -1.5184769474573E-03
(PID.TID 0000.0001) %MON dynstat_vvel_sd              =   1.4493445005963E-02
(PID.TID 0000.0001) %MON dynstat_vvel_del2            =   3.5310623094856E-03
(PID.TID 0000.0001) %MON dynstat_wvel_max             =   1.9576955274435E-04
(PID.TID 0000.0001) %MON dynstat_wvel_min             =  -1.6520410739627E-04
(PID.TID 0000.0001) %MON dynstat_wvel_mean            =   6.8909397418221E-22
(PID.TID 0000.0001) %MON dynstat_wvel_sd              =   2.1110047035984E-05
(PID.TID 0000.0001) %MON dynstat_wvel_del2            =   7.0648840862196E-06
(PID.TID 0000.0001) %MON dynstat_theta_max            =   2.9507526588670E+01
(PID.TID 0000.0001) %MON dynstat_theta_min            =  -2.0311027693383E+00
(PID.TID 0000.0001) %MON dynstat_theta_mean           =   3.5893602567092E+00
(PID.TID 0000.0001) %MON dynstat_theta_sd             =   4.3407675719560E+00
(PID.TID 0000.0001) %MON dynstat_theta_del2           =   1.3736501831237E-01
(PID.TID 0000.0001) %MON dynstat_salt_max             =   3.7389673061214E+01
(PID.TID 0000.0001) %MON dynstat_salt_min             =   2.9874647711677E+01
(PID.TID 0000.0001) %MON dynstat_salt_mean            =   3.4715989565058E+01
(PID.TID 0000.0001) %MON dynstat_salt_sd              =   2.9559216444280E-01
(PID.TID 0000.0001) %MON dynstat_salt_del2            =   2.5548135109434E-02
(PID.TID 0000.0001) %MON dynstat_sst_max              =   2.9507526588670E+01
(PID.TID 0000.0001) %MON dynstat_sst_min              =  -1.9344311127815E+00
(PID.TID 0000.0001) %MON dynstat_sst_mean             =   1.8634645490352E+01
(PID.TID 0000.0001) %MON dynstat_sst_sd               =   8.8952691278716E+00
(PID.TID 0000.0001) %MON dynstat_sst_del2             =   2.7053531276454E-01
(PID.TID 0000.0001) %MON dynstat_sss_max              =   3.7389671416441E+01
(PID.TID 0000.0001) %MON dynstat_sss_min              =   2.9874647711677E+01
(PID.TID 0000.0001) %MON dynstat_sss_mean             =   3.4844299384046E+01
(PID.TID 0000.0001) %MON dynstat_sss_sd               =   9.6057878450254E-01
(PID.TID 0000.0001) %MON dynstat_sss_del2             =   7.9882531784305E-02
(PID.TID 0000.0001) %MON extforcing_qnet_max          =   3.7191279602051E+02
(PID.TID 0000.0001) %MON extforcing_qnet_min          =  -1.7498964233398E+02
(PID.TID 0000.0001) %MON extforcing_qnet_mean         =  -1.4729433485573E+01
(PID.TID 0000.0001) %MON extforcing_qnet_sd           =   8.8124246964212E+01
(PID.TID 0000.0001) %MON extforcing_qnet_del2         =   8.7866073098354E+00
(PID.TID 0000.0001) %MON extforcing_qsw_max           =   0.0000000000000E+00
(PID.TID 0000.0001) %MON extforcing_qsw_min           =   0.0000000000000E+00
(PID.TID 0000.0001) %MON extforcing_qsw_mean          =   0.0000000000000E+00
(PID.TID 0000.0001) %MON extforcing_qsw_sd            =   0.0000000000000E+00
(PID.TID 0000.0001) %MON extforcing_qsw_del2          =   0.0000000000000E+00
(PID.TID 0000.0001) %MON extforcing_empmr_max         =   0.0000000000000E+00
(PID.TID 0000.0001) %MON extforcing_empmr_min         =   0.0000000000000E+00
(PID.TID 0000.0001) %MON extforcing_empmr_mean        =   0.0000000000000E+00
(PID.TID 0000.0001) %MON extforcing_empmr_sd          =   0.0000000000000E+00
(PID.TID 0000.0001) %MON extforcing_empmr_del2        =   0.0000000000000E+00
(PID.TID 0000.0001) %MON extforcing_fu_max            =   2.9215110242367E-01
(PID.TID 0000.0001) %MON extforcing_fu_min            =  -2.0079303681850E-01
(PID.TID 0000.0001) %MON extforcing_fu_mean           =   1.7142039677415E-02
(PID.TID 0000.0001) %MON extforcing_fu_sd             =   9.0801562846002E-02
(PID.TID 0000.0001) %MON extforcing_fu_del2           =   7.5340148617231E-03
(PID.TID 0000.0001) %MON extforcing_fv_max            =   1.8260629773140E-01
(PID.TID 0000.0001) %MON extforcing_fv_min            =  -1.7113216519356E-01
(PID.TID 0000.0001) %MON extforcing_fv_mean           =  -6.6293767805238E-03
(PID.TID 0000.0001) %MON extforcing_fv_sd             =   4.4536887248365E-02
(PID.TID 0000.0001) %MON extforcing_fv_del2           =   4.5468020965694E-03
(PID.TID 0000.0001) %MON advcfl_uvel_max              =   2.6685492451490E-02
(PID.TID 0000.0001) %MON advcfl_vvel_max              =   1.5652080564615E-02
(PID.TID 0000.0001) %MON advcfl_wvel_max              =   1.6222392640202E-01
(PID.TID 0000.0001) %MON advcfl_W_hf_max              =   1.4999991276507E-01
(PID.TID 0000.0001) %MON pe_b_mean                    =   2.5997941418078E-04
(PID.TID 0000.0001) %MON ke_max                       =   1.9393515158951E-02
(PID.TID 0000.0001) %MON ke_mean                      =   2.3247390534016E-04
(PID.TID 0000.0001) %MON ke_vol                       =   1.3226782436723E+18
(PID.TID 0000.0001) %MON vort_r_min                   =  -4.8983565384868E-07
(PID.TID 0000.0001) %MON vort_r_max                   =   4.2800045607913E-07
(PID.TID 0000.0001) %MON vort_a_mean                  =  -2.5205769031421E-05
(PID.TID 0000.0001) %MON vort_a_sd                    =   7.3403508027131E-05
(PID.TID 0000.0001) %MON vort_p_mean                  =  -3.1758669101336E-05
(PID.TID 0000.0001) %MON vort_p_sd                    =   1.3126474900082E-04
(PID.TID 0000.0001) %MON surfExpan_theta_mean         =   3.1953844785613E-06
(PID.TID 0000.0001) %MON surfExpan_salt_mean          =   4.9641665087740E-07
(PID.TID 0000.0001) // =======================================================
(PID.TID 0000.0001) // End MONITOR dynamic field statistics
(PID.TID 0000.0001) // =======================================================
time,SST,SSS,fu,fv,Q,E-P,i0,i1,a,b =   3.1536E+06 -1.0961E-01  3.4504E+01 -2.0441E-02 -2.8862E-02  2.4765E+02  0.0000E+00     1     2  7.1667E-01  2.8333E-01
time,fu0,fu1,fu =   3.1536E+06 -3.5633E-02 -1.4435E-02 -2.0441E-02  7.166666666666667E-01  2.833333333333333E-01
 cg2d: Sum(rhs),rhsMax =   2.95973662245430E-12  8.49105071224346E+00
(PID.TID 0000.0001)                    cg2d_init_res =    4.89694194867715E-01
(PID.TID 0000.0001)                       cg2d_iters =    24
(PID.TID 0000.0001)                         cg2d_res =    7.78500866620443E-14
(PID.TID 0000.0001) // =======================================================
(PID.TID 0000.0001) // Begin MONITOR dynamic field statistics
(PID.TID 0000.0001) // =======================================================
(PID.TID 0000.0001) %MON time_tsnumber                =                    74
(PID.TID 0000.0001) %MON time_secondsf                =   3.1968000000000E+06
(PID.TID 0000.0001) %MON dynstat_eta_max              =   9.3474846307447E-01
(PID.TID 0000.0001) %MON dynstat_eta_min              =  -1.3605084330288E+00
(PID.TID 0000.0001) %MON dynstat_eta_mean             =  -1.7580727390087E-15
(PID.TID 0000.0001) %MON dynstat_eta_sd               =   4.5101172038411E-01
(PID.TID 0000.0001) %MON dynstat_eta_del2             =   2.4894357101310E-02
(PID.TID 0000.0001) %MON dynstat_uvel_max             =   2.0330018142200E-01
(PID.TID 0000.0001) %MON dynstat_uvel_min             =  -1.4864598472917E-01
(PID.TID 0000.0001) %MON dynstat_uvel_mean            =   1.0081136108474E-03
(PID.TID 0000.0001) %MON dynstat_uvel_sd              =   1.7157446356185E-02
(PID.TID 0000.0001) %MON dynstat_uvel_del2            =   3.5449649066466E-03
(PID.TID 0000.0001) %MON dynstat_vvel_max             =   1.6176559770816E-01
(PID.TID 0000.0001) %MON dynstat_vvel_min             =  -1.1787082046849E-01
(PID.TID 0000.0001) %MON dynstat_vvel_mean            =  -1.4388545580451E-03
(PID.TID 0000.0001) %MON dynstat_vvel_sd              =   1.4496441378657E-02
(PID.TID 0000.0001) %MON dynstat_vvel_del2            =   3.5231243160284E-03
(PID.TID 0000.0001) %MON dynstat_wvel_max             =   1.9624075080689E-04
(PID.TID 0000.0001) %MON dynstat_wvel_min             =  -1.5600757766869E-04
(PID.TID 0000.0001) %MON dynstat_wvel_mean            =  -6.7021688664927E-23
(PID.TID 0000.0001) %MON dynstat_wvel_sd              =   2.0886718811030E-05
(PID.TID 0000.0001) %MON dynstat_wvel_del2            =   6.9764466233333E-06
(PID.TID 0000.0001) %MON dynstat_theta_max            =   2.9512358460987E+01
(PID.TID 0000.0001) %MON dynstat_theta_min            =  -2.0313498686318E+00
(PID.TID 0000.0001) %MON dynstat_theta_mean           =   3.5893628532260E+00
(PID.TID 0000.0001) %MON dynstat_theta_sd             =   4.3409398526740E+00
(PID.TID 0000.0001) %MON dynstat_theta_del2           =   1.3753394045088E-01
(PID.TID 0000.0001) %MON dynstat_salt_max             =   3.7389508945552E+01
(PID.TID 0000.0001) %MON dynstat_salt_min             =   2.9876160594794E+01
(PID.TID 0000.0001) %MON dynstat_salt_mean            =   3.4715984248191E+01
(PID.TID 0000.0001) %MON dynstat_salt_sd              =   2.9558295306243E-01
(PID.TID 0000.0001) %MON dynstat_salt_del2            =   2.5564912431017E-02
(PID.TID 0000.0001) %MON dynstat_sst_max              =   2.9512358460987E+01
(PID.TID 0000.0001) %MON dynstat_sst_min              =  -1.9332182326965E+00
(PID.TID 0000.0001) %MON dynstat_sst_mean             =   1.8636187698798E+01
(PID.TID 0000.0001) %MON dynstat_sst_sd               =   8.8979814038515E+00
(PID.TID 0000.0001) %MON dynstat_sst_del2             =   2.7058957915569E-01
(PID.TID 0000.0001) %MON dynstat_sss_max              =   3.7389507242207E+01
(PID.TID 0000.0001) %MON dynstat_sss_min              =   2.9876160594794E+01
(PID.TID 0000.0001) %MON dynstat_sss_mean             =   3.4843989361600E+01
(PID.TID 0000.0001) %MON dynstat_sss_sd               =   9.6026726815819E-01
(PID.TID 0000.0001) %MON dynstat_sss_del2             =   7.9901363642815E-02
(PID.TID 0000.0001) %MON extforcing_qnet_max          =   3.7025325266520E+02
(PID.TID 0000.0001) %MON extforcing_qnet_min          =  -1.7486988271077E+02
(PID.TID 0000.0001) %MON extforcing_qnet_mean         =  -1.4686978901872E+01
(PID.TID 0000.0001) %MON extforcing_qnet_sd           =   8.7635121713388E+01
(PID.TID 0000.0001) %MON extforcing_qnet_del2         =   8.7720823687977E+00
(PID.TID 0000.0001) %MON extforcing_qsw_max           =   0.0000000000000E+00
(PID.TID 0000.0001) %MON extforcing_qsw_min           =   0.0000000000000E+00
(PID.TID 0000.0001) %MON extforcing_qsw_mean          =   0.0000000000000E+00
(PID.TID 0000.0001) %MON extforcing_qsw_sd            =   0.0000000000000E+00
(PID.TID 0000.0001) %MON extforcing_qsw_del2          =   0.0000000000000E+00
(PID.TID 0000.0001) %MON extforcing_empmr_max         =   0.0000000000000E+00
(PID.TID 0000.0001) %MON extforcing_empmr_min         =   0.0000000000000E+00
(PID.TID 0000.0001) %MON extforcing_empmr_mean        =   0.0000000000000E+00
(PID.TID 0000.0001) %MON extforcing_empmr_sd          =   0.0000000000000E+00
(PID.TID 0000.0001) %MON extforcing_empmr_del2        =   0.0000000000000E+00
(PID.TID 0000.0001) %MON extforcing_fu_max            =   2.9284468144178E-01
(PID.TID 0000.0001) %MON extforcing_fu_min            =  -2.0162299871445E-01
(PID.TID 0000.0001) %MON extforcing_fu_mean           =   1.7169189785149E-02
(PID.TID 0000.0001) %MON extforcing_fu_sd             =   9.0888935224983E-02
(PID.TID 0000.0001) %MON extforcing_fu_del2           =   7.5549834831198E-03
(PID.TID 0000.0001) %MON extforcing_fv_max            =   1.8363326316079E-01
(PID.TID 0000.0001) %MON extforcing_fv_min            =  -1.7271811465422E-01
(PID.TID 0000.0001) %MON extforcing_fv_mean           =  -6.6620072338814E-03
(PID.TID 0000.0001) %MON extforcing_fv_sd             =   4.4531422111981E-02
(PID.TID 0000.0001) %MON extforcing_fv_del2           =   4.5704576616324E-03
(PID.TID 0000.0001) %MON advcfl_uvel_max              =   2.6574877031548E-02
(PID.TID 0000.0001) %MON advcfl_vvel_max              =   1.5714230613211E-02
(PID.TID 0000.0001) %MON advcfl_wvel_max              =   1.7113242095374E-01
(PID.TID 0000.0001) %MON advcfl_W_hf_max              =   1.5824977706060E-01
(PID.TID 0000.0001) %MON pe_b_mean                    =   2.6028962404912E-04
(PID.TID 0000.0001) %MON ke_max                       =   2.0362844329327E-02
(PID.TID 0000.0001) %MON ke_mean                      =   2.2947564832000E-04
(PID.TID 0000.0001) %MON ke_vol                       =   1.3226782436723E+18
(PID.TID 0000.0001) %MON vort_r_min                   =  -4.9213582826065E-07
(PID.TID 0000.0001) %MON vort_r_max                   =   4.2379662620440E-07
(PID.TID 0000.0001) %MON vort_a_mean                  =  -2.5205769030244E-05
(PID.TID 0000.0001) %MON vort_a_sd                    =   7.3403530618688E-05
(PID.TID 0000.0001) %MON vort_p_mean                  =  -3.1758669099852E-05
(PID.TID 0000.0001) %MON vort_p_sd                    =   1.3126475096774E-04
(PID.TID 0000.0001) %MON surfExpan_theta_mean         =   3.1046095814725E-06
(PID.TID 0000.0001) %MON surfExpan_salt_mean          =   4.7036095901890E-07
(PID.TID 0000.0001) // =======================================================
(PID.TID 0000.0001) // End MONITOR dynamic field statistics
(PID.TID 0000.0001) // =======================================================
time,SST,SSS,fu,fv,Q,E-P,i0,i1,a,b =   3.1968E+06 -1.3445E-01  3.4499E+01 -2.0088E-02 -2.8201E-02  2.4722E+02  0.0000E+00     1     2  7.3333E-01  2.6667E-01
time,fu0,fu1,fu =   3.1968E+06 -3.5633E-02 -1.4435E-02 -2.0088E-02  7.333333333333333E-01  2.666666666666667E-01
 cg2d: Sum(rhs),rhsMax =   2.74562317326144E-12  8.90375407700119E+00
(PID.TID 0000.0001)                    cg2d_init_res =    4.50800265944365E-01
(PID.TID 0000.0001)                       cg2d_iters =    24
(PID.TID 0000.0001)                         cg2d_res =    7.23895333382250E-14
(PID.TID 0000.0001) // =======================================================
(PID.TID 0000.0001) // Begin MONITOR dynamic field statistics
(PID.TID 0000.0001) // =======================================================
(PID.TID 0000.0001) %MON time_tsnumber                =                    75
(PID.TID 0000.0001) %MON time_secondsf                =   3.2400000000000E+06
(PID.TID 0000.0001) %MON dynstat_eta_max              =   9.7990577564757E-01
(PID.TID 0000.0001) %MON dynstat_eta_min              =  -1.3662919240548E+00
(PID.TID 0000.0001) %MON dynstat_eta_mean             =  -1.3235160946086E-15
(PID.TID 0000.0001) %MON dynstat_eta_sd               =   4.5138258755635E-01
(PID.TID 0000.0001) %MON dynstat_eta_del2             =   2.5045179424213E-02
(PID.TID 0000.0001) %MON dynstat_uvel_max             =   2.0648361135451E-01
(PID.TID 0000.0001) %MON dynstat_uvel_min             =  -1.4777682710159E-01
(PID.TID 0000.0001) %MON dynstat_uvel_mean            =   1.1246992937256E-03
(PID.TID 0000.0001) %MON dynstat_uvel_sd              =   1.6935271195955E-02
(PID.TID 0000.0001) %MON dynstat_uvel_del2            =   3.5197514295267E-03
(PID.TID 0000.0001) %MON dynstat_vvel_max             =   1.6150545514875E-01
(PID.TID 0000.0001) %MON dynstat_vvel_min             =  -1.1792769626401E-01
(PID.TID 0000.0001) %MON dynstat_vvel_mean            =  -1.3568714431094E-03
(PID.TID 0000.0001) %MON dynstat_vvel_sd              =   1.4492523233402E-02
(PID.TID 0000.0001) %MON dynstat_vvel_del2            =   3.5099177555653E-03
(PID.TID 0000.0001) %MON dynstat_wvel_max             =   1.9597180965989E-04
(PID.TID 0000.0001) %MON dynstat_wvel_min             =  -1.4670995794895E-04
(PID.TID 0000.0001) %MON dynstat_wvel_mean            =  -5.2479679556931E-23
(PID.TID 0000.0001) %MON dynstat_wvel_sd              =   2.0621286528678E-05
(PID.TID 0000.0001) %MON dynstat_wvel_del2            =   6.8773055362739E-06
(PID.TID 0000.0001) %MON dynstat_theta_max            =   2.9518742023388E+01
(PID.TID 0000.0001) %MON dynstat_theta_min            =  -2.0315416435373E+00
(PID.TID 0000.0001) %MON dynstat_theta_mean           =   3.5893654906726E+00
(PID.TID 0000.0001) %MON dynstat_theta_sd             =   4.3411147474580E+00
(PID.TID 0000.0001) %MON dynstat_theta_del2           =   1.3767912946709E-01
(PID.TID 0000.0001) %MON dynstat_salt_max             =   3.7389413486175E+01
(PID.TID 0000.0001) %MON dynstat_salt_min             =   2.9877574096441E+01
(PID.TID 0000.0001) %MON dynstat_salt_mean            =   3.4715979341927E+01
(PID.TID 0000.0001) %MON dynstat_salt_sd              =   2.9557125983009E-01
(PID.TID 0000.0001) %MON dynstat_salt_del2            =   2.5567028098845E-02
(PID.TID 0000.0001) %MON dynstat_sst_max              =   2.9518742023388E+01
(PID.TID 0000.0001) %MON dynstat_sst_min              =  -1.9320773260785E+00
(PID.TID 0000.0001) %MON dynstat_sst_mean             =   1.8637544862302E+01
(PID.TID 0000.0001) %MON dynstat_sst_sd               =   8.9008859642318E+00
(PID.TID 0000.0001) %MON dynstat_sst_del2             =   2.7047776453910E-01
(PID.TID 0000.0001) %MON dynstat_sss_max              =   3.7389411734327E+01
(PID.TID 0000.0001) %MON dynstat_sss_min              =   2.9877574096441E+01
(PID.TID 0000.0001) %MON dynstat_sss_mean             =   3.4843675716738E+01
(PID.TID 0000.0001) %MON dynstat_sss_sd               =   9.6006260552722E-01
(PID.TID 0000.0001) %MON dynstat_sss_del2             =   7.9861971044783E-02
(PID.TID 0000.0001) %MON extforcing_qnet_max          =   3.6928591512044E+02
(PID.TID 0000.0001) %MON extforcing_qnet_min          =  -1.7475012308757E+02
(PID.TID 0000.0001) %MON extforcing_qnet_mean         =  -1.4644524318170E+01
(PID.TID 0000.0001) %MON extforcing_qnet_sd           =   8.7147670189845E+01
(PID.TID 0000.0001) %MON extforcing_qnet_del2         =   8.7577649036824E+00
(PID.TID 0000.0001) %MON extforcing_qsw_max           =   0.0000000000000E+00
(PID.TID 0000.0001) %MON extforcing_qsw_min           =   0.0000000000000E+00
(PID.TID 0000.0001) %MON extforcing_qsw_mean          =   0.0000000000000E+00
(PID.TID 0000.0001) %MON extforcing_qsw_sd            =   0.0000000000000E+00
(PID.TID 0000.0001) %MON extforcing_qsw_del2          =   0.0000000000000E+00
(PID.TID 0000.0001) %MON extforcing_empmr_max         =   0.0000000000000E+00
(PID.TID 0000.0001) %MON extforcing_empmr_min         =   0.0000000000000E+00
(PID.TID 0000.0001) %MON extforcing_empmr_mean        =   0.0000000000000E+00
(PID.TID 0000.0001) %MON extforcing_empmr_sd          =   0.0000000000000E+00
(PID.TID 0000.0001) %MON extforcing_empmr_del2        =   0.0000000000000E+00
(PID.TID 0000.0001) %MON extforcing_fu_max            =   2.9353826045990E-01
(PID.TID 0000.0001) %MON extforcing_fu_min            =  -2.0245296061039E-01
(PID.TID 0000.0001) %MON extforcing_fu_mean           =   1.7196339892884E-02
(PID.TID 0000.0001) %MON extforcing_fu_sd             =   9.0980570230984E-02
(PID.TID 0000.0001) %MON extforcing_fu_del2           =   7.5774465405765E-03
(PID.TID 0000.0001) %MON extforcing_fv_max            =   1.8468924562136E-01
(PID.TID 0000.0001) %MON extforcing_fv_min            =  -1.7430406411489E-01
(PID.TID 0000.0001) %MON extforcing_fv_mean           =  -6.6946376872389E-03
(PID.TID 0000.0001) %MON extforcing_fv_sd             =   4.4529984647436E-02
(PID.TID 0000.0001) %MON extforcing_fv_del2           =   4.5949004398314E-03
(PID.TID 0000.0001) %MON advcfl_uvel_max              =   2.6991006807740E-02
(PID.TID 0000.0001) %MON advcfl_vvel_max              =   1.5688959849657E-02
(PID.TID 0000.0001) %MON advcfl_wvel_max              =   1.7429731366210E-01
(PID.TID 0000.0001) %MON advcfl_W_hf_max              =   1.6118491184920E-01
(PID.TID 0000.0001) %MON pe_b_mean                    =   2.6071787263775E-04
(PID.TID 0000.0001) %MON ke_max                       =   2.1191529893423E-02
(PID.TID 0000.0001) %MON ke_mean                      =   2.2599348996140E-04
(PID.TID 0000.0001) %MON ke_vol                       =   1.3226782436723E+18
(PID.TID 0000.0001) %MON vort_r_min                   =  -4.9393073520678E-07
(PID.TID 0000.0001) %MON vort_r_max                   =   4.2131990020942E-07
(PID.TID 0000.0001) %MON vort_a_mean                  =  -2.5205769032229E-05
(PID.TID 0000.0001) %MON vort_a_sd                    =   7.3403551796868E-05
(PID.TID 0000.0001) %MON vort_p_mean                  =  -3.1758669102353E-05
(PID.TID 0000.0001) %MON vort_p_sd                    =   1.3126474992849E-04
(PID.TID 0000.0001) %MON surfExpan_theta_mean         =   3.1644933568279E-06
(PID.TID 0000.0001) %MON surfExpan_salt_mean          =   4.3091496871462E-07
(PID.TID 0000.0001) // =======================================================
(PID.TID 0000.0001) // End MONITOR dynamic field statistics
(PID.TID 0000.0001) // =======================================================
time,SST,SSS,fu,fv,Q,E-P,i0,i1,a,b =   3.2400E+06 -1.5929E-01  3.4494E+01 -1.9734E-02 -2.7541E-02  2.4680E+02  0.0000E+00     1     2  7.5000E-01  2.5000E-01
time,fu0,fu1,fu =   3.2400E+06 -3.5633E-02 -1.4435E-02 -1.9734E-02  7.500000000000000E-01  2.500000000000000E-01
 cg2d: Sum(rhs),rhsMax =   2.86500684287816E-12  9.21995713878831E+00
(PID.TID 0000.0001)                    cg2d_init_res =    4.16175829502292E-01
(PID.TID 0000.0001)                       cg2d_iters =    24
(PID.TID 0000.0001)                         cg2d_res =    6.74961006270629E-14
(PID.TID 0000.0001) // =======================================================
(PID.TID 0000.0001) // Begin MONITOR dynamic field statistics
(PID.TID 0000.0001) // =======================================================
(PID.TID 0000.0001) %MON time_tsnumber                =                    76
(PID.TID 0000.0001) %MON time_secondsf                =   3.2832000000000E+06
(PID.TID 0000.0001) %MON dynstat_eta_max              =   1.0158531574703E+00
(PID.TID 0000.0001) %MON dynstat_eta_min              =  -1.3693429753249E+00
(PID.TID 0000.0001) %MON dynstat_eta_mean             =  -1.6144020960287E-15
(PID.TID 0000.0001) %MON dynstat_eta_sd               =   4.5184832315213E-01
(PID.TID 0000.0001) %MON dynstat_eta_del2             =   2.5237646594392E-02
(PID.TID 0000.0001) %MON dynstat_uvel_max             =   2.0821536627211E-01
(PID.TID 0000.0001) %MON dynstat_uvel_min             =  -1.4668101562419E-01
(PID.TID 0000.0001) %MON dynstat_uvel_mean            =   1.2322689278168E-03
(PID.TID 0000.0001) %MON dynstat_uvel_sd              =   1.6690753243998E-02
(PID.TID 0000.0001) %MON dynstat_uvel_del2            =   3.4942867949734E-03
(PID.TID 0000.0001) %MON dynstat_vvel_max             =   1.6035239017286E-01
(PID.TID 0000.0001) %MON dynstat_vvel_min             =  -1.1782894179450E-01
(PID.TID 0000.0001) %MON dynstat_vvel_mean            =  -1.2742497150156E-03
(PID.TID 0000.0001) %MON dynstat_vvel_sd              =   1.4480722224463E-02
(PID.TID 0000.0001) %MON dynstat_vvel_del2            =   3.4911728372932E-03
(PID.TID 0000.0001) %MON dynstat_wvel_max             =   1.9500956570554E-04
(PID.TID 0000.0001) %MON dynstat_wvel_min             =  -1.3749939596861E-04
(PID.TID 0000.0001) %MON dynstat_wvel_mean            =  -1.5021390796256E-22
(PID.TID 0000.0001) %MON dynstat_wvel_sd              =   2.0324521669074E-05
(PID.TID 0000.0001) %MON dynstat_wvel_del2            =   6.7794634436837E-06
(PID.TID 0000.0001) %MON dynstat_theta_max            =   2.9526898939594E+01
(PID.TID 0000.0001) %MON dynstat_theta_min            =  -2.0316706904984E+00
(PID.TID 0000.0001) %MON dynstat_theta_mean           =   3.5893664639842E+00
(PID.TID 0000.0001) %MON dynstat_theta_sd             =   4.3412862028201E+00
(PID.TID 0000.0001) %MON dynstat_theta_del2           =   1.3786474189711E-01
(PID.TID 0000.0001) %MON dynstat_salt_max             =   3.7389373414204E+01
(PID.TID 0000.0001) %MON dynstat_salt_min             =   2.9878874153310E+01
(PID.TID 0000.0001) %MON dynstat_salt_mean            =   3.4715974982137E+01
(PID.TID 0000.0001) %MON dynstat_salt_sd              =   2.9555715297282E-01
(PID.TID 0000.0001) %MON dynstat_salt_del2            =   2.5577150037929E-02
(PID.TID 0000.0001) %MON dynstat_sst_max              =   2.9526898939594E+01
(PID.TID 0000.0001) %MON dynstat_sst_min              =  -1.9310347069625E+00
(PID.TID 0000.0001) %MON dynstat_sst_mean             =   1.8638851693587E+01
(PID.TID 0000.0001) %MON dynstat_sst_sd               =   8.9037031612822E+00
(PID.TID 0000.0001) %MON dynstat_sst_del2             =   2.7046693785317E-01
(PID.TID 0000.0001) %MON dynstat_sss_max              =   3.7389371625194E+01
(PID.TID 0000.0001) %MON dynstat_sss_min              =   2.9878874153310E+01
(PID.TID 0000.0001) %MON dynstat_sss_mean             =   3.4843366107379E+01
(PID.TID 0000.0001) %MON dynstat_sss_sd               =   9.5985589384563E-01
(PID.TID 0000.0001) %MON dynstat_sss_del2             =   7.9855811615682E-02
(PID.TID 0000.0001) %MON extforcing_qnet_max          =   3.6860881042480E+02
(PID.TID 0000.0001) %MON extforcing_qnet_min          =  -1.7463036346436E+02
(PID.TID 0000.0001) %MON extforcing_qnet_mean         =  -1.4602069734469E+01
(PID.TID 0000.0001) %MON extforcing_qnet_sd           =   8.6661920636472E+01
(PID.TID 0000.0001) %MON extforcing_qnet_del2         =   8.7436674218665E+00
(PID.TID 0000.0001) %MON extforcing_qsw_max           =   0.0000000000000E+00
(PID.TID 0000.0001) %MON extforcing_qsw_min           =   0.0000000000000E+00
(PID.TID 0000.0001) %MON extforcing_qsw_mean          =   0.0000000000000E+00
(PID.TID 0000.0001) %MON extforcing_qsw_sd            =   0.0000000000000E+00
(PID.TID 0000.0001) %MON extforcing_qsw_del2          =   0.0000000000000E+00
(PID.TID 0000.0001) %MON extforcing_empmr_max         =   0.0000000000000E+00
(PID.TID 0000.0001) %MON extforcing_empmr_min         =   0.0000000000000E+00
(PID.TID 0000.0001) %MON extforcing_empmr_mean        =   0.0000000000000E+00
(PID.TID 0000.0001) %MON extforcing_empmr_sd          =   0.0000000000000E+00
(PID.TID 0000.0001) %MON extforcing_empmr_del2        =   0.0000000000000E+00
(PID.TID 0000.0001) %MON extforcing_fu_max            =   2.9423183947802E-01
(PID.TID 0000.0001) %MON extforcing_fu_min            =  -2.0328292250633E-01
(PID.TID 0000.0001) %MON extforcing_fu_mean           =   1.7223490000618E-02
(PID.TID 0000.0001) %MON extforcing_fu_sd             =   9.1076454997700E-02
(PID.TID 0000.0001) %MON extforcing_fu_del2           =   7.6012629026167E-03
(PID.TID 0000.0001) %MON extforcing_fv_max            =   1.8574522808194E-01
(PID.TID 0000.0001) %MON extforcing_fv_min            =  -1.7589001357555E-01
(PID.TID 0000.0001) %MON extforcing_fv_mean           =  -6.7272681405965E-03
(PID.TID 0000.0001) %MON extforcing_fv_sd             =   4.4532575244756E-02
(PID.TID 0000.0001) %MON extforcing_fv_del2           =   4.6203200589740E-03
(PID.TID 0000.0001) %MON advcfl_uvel_max              =   2.7217377358234E-02
(PID.TID 0000.0001) %MON advcfl_vvel_max              =   1.5576948833719E-02
(PID.TID 0000.0001) %MON advcfl_wvel_max              =   1.7182644848018E-01
(PID.TID 0000.0001) %MON advcfl_W_hf_max              =   1.5890485871124E-01
(PID.TID 0000.0001) %MON pe_b_mean                    =   2.6125616649500E-04
(PID.TID 0000.0001) %MON ke_max                       =   2.1857606878678E-02
(PID.TID 0000.0001) %MON ke_mean                      =   2.2212212661847E-04
(PID.TID 0000.0001) %MON ke_vol                       =   1.3226782436723E+18
(PID.TID 0000.0001) %MON vort_r_min                   =  -4.9495392352960E-07
(PID.TID 0000.0001) %MON vort_r_max                   =   4.3471501976150E-07
(PID.TID 0000.0001) %MON vort_a_mean                  =  -2.5205769036941E-05
(PID.TID 0000.0001) %MON vort_a_sd                    =   7.3403571398231E-05
(PID.TID 0000.0001) %MON vort_p_mean                  =  -3.1758669108291E-05
(PID.TID 0000.0001) %MON vort_p_sd                    =   1.3126474532665E-04
(PID.TID 0000.0001) %MON surfExpan_theta_mean         =   3.3749773823596E-06
(PID.TID 0000.0001) %MON surfExpan_salt_mean          =   3.8163368108687E-07
(PID.TID 0000.0001) // =======================================================
(PID.TID 0000.0001) // End MONITOR dynamic field statistics
(PID.TID 0000.0001) // =======================================================
time,SST,SSS,fu,fv,Q,E-P,i0,i1,a,b =   3.2832E+06 -1.8412E-01  3.4490E+01 -1.9381E-02 -2.6880E-02  2.4638E+02  0.0000E+00     1     2  7.6667E-01  2.3333E-01
time,fu0,fu1,fu =   3.2832E+06 -3.5633E-02 -1.4435E-02 -1.9381E-02  7.666666666666667E-01  2.333333333333333E-01
 cg2d: Sum(rhs),rhsMax =   2.29983393440492E-12  9.43408852180876E+00
(PID.TID 0000.0001)                    cg2d_init_res =    3.86107050630673E-01
(PID.TID 0000.0001)                       cg2d_iters =    24
(PID.TID 0000.0001)                         cg2d_res =    6.37734759878833E-14
(PID.TID 0000.0001) // =======================================================
(PID.TID 0000.0001) // Begin MONITOR dynamic field statistics
(PID.TID 0000.0001) // =======================================================
(PID.TID 0000.0001) %MON time_tsnumber                =                    77
(PID.TID 0000.0001) %MON time_secondsf                =   3.3264000000000E+06
(PID.TID 0000.0001) %MON dynstat_eta_max              =   1.0400904515126E+00
(PID.TID 0000.0001) %MON dynstat_eta_min              =  -1.3696847543989E+00
(PID.TID 0000.0001) %MON dynstat_eta_mean             =  -1.4333385963487E-15
(PID.TID 0000.0001) %MON dynstat_eta_sd               =   4.5239652144546E-01
(PID.TID 0000.0001) %MON dynstat_eta_del2             =   2.5433312041536E-02
(PID.TID 0000.0001) %MON dynstat_uvel_max             =   2.0869674665907E-01
(PID.TID 0000.0001) %MON dynstat_uvel_min             =  -1.4536159333144E-01
(PID.TID 0000.0001) %MON dynstat_uvel_mean            =   1.3299724243918E-03
(PID.TID 0000.0001) %MON dynstat_uvel_sd              =   1.6430041808202E-02
(PID.TID 0000.0001) %MON dynstat_uvel_del2            =   3.4677446653507E-03
(PID.TID 0000.0001) %MON dynstat_vvel_max             =   1.5832519769648E-01
(PID.TID 0000.0001) %MON dynstat_vvel_min             =  -1.1757994463189E-01
(PID.TID 0000.0001) %MON dynstat_vvel_mean            =  -1.1924502495309E-03
(PID.TID 0000.0001) %MON dynstat_vvel_sd              =   1.4461018371901E-02
(PID.TID 0000.0001) %MON dynstat_vvel_del2            =   3.4699618373892E-03
(PID.TID 0000.0001) %MON dynstat_wvel_max             =   1.9341394280124E-04
(PID.TID 0000.0001) %MON dynstat_wvel_min             =  -1.2855713006871E-04
(PID.TID 0000.0001) %MON dynstat_wvel_mean            =  -4.7162900832588E-22
(PID.TID 0000.0001) %MON dynstat_wvel_sd              =   2.0010185577526E-05
(PID.TID 0000.0001) %MON dynstat_wvel_del2            =   6.6931810869330E-06
(PID.TID 0000.0001) %MON dynstat_theta_max            =   2.9541682546893E+01
(PID.TID 0000.0001) %MON dynstat_theta_min            =  -2.0317297891441E+00
(PID.TID 0000.0001) %MON dynstat_theta_mean           =   3.5893640745334E+00
(PID.TID 0000.0001) %MON dynstat_theta_sd             =   4.3414493155683E+00
(PID.TID 0000.0001) %MON dynstat_theta_del2           =   1.3807255375604E-01
(PID.TID 0000.0001) %MON dynstat_salt_max             =   3.7389374648708E+01
(PID.TID 0000.0001) %MON dynstat_salt_min             =   2.9880051004202E+01
(PID.TID 0000.0001) %MON dynstat_salt_mean            =   3.4715971255313E+01
(PID.TID 0000.0001) %MON dynstat_salt_sd              =   2.9554102899255E-01
(PID.TID 0000.0001) %MON dynstat_salt_del2            =   2.5586244175712E-02
(PID.TID 0000.0001) %MON dynstat_sst_max              =   2.9541682546893E+01
(PID.TID 0000.0001) %MON dynstat_sst_min              =  -1.9301157947689E+00
(PID.TID 0000.0001) %MON dynstat_sst_mean             =   1.8639711103188E+01
(PID.TID 0000.0001) %MON dynstat_sst_sd               =   8.9066410005258E+00
(PID.TID 0000.0001) %MON dynstat_sst_del2             =   2.7051219642416E-01
(PID.TID 0000.0001) %MON dynstat_sss_max              =   3.7389372834635E+01
(PID.TID 0000.0001) %MON dynstat_sss_min              =   2.9880051004202E+01
(PID.TID 0000.0001) %MON dynstat_sss_mean             =   3.4842969734195E+01
(PID.TID 0000.0001) %MON dynstat_sss_sd               =   9.5953527988583E-01
(PID.TID 0000.0001) %MON dynstat_sss_del2             =   7.9835564935159E-02
(PID.TID 0000.0001) %MON extforcing_qnet_max          =   3.6793170572917E+02
(PID.TID 0000.0001) %MON extforcing_qnet_min          =  -1.7451060384115E+02
(PID.TID 0000.0001) %MON extforcing_qnet_mean         =  -1.4559615150767E+01
(PID.TID 0000.0001) %MON extforcing_qnet_sd           =   8.6177901833202E+01
(PID.TID 0000.0001) %MON extforcing_qnet_del2         =   8.7302482141517E+00
(PID.TID 0000.0001) %MON extforcing_qsw_max           =   0.0000000000000E+00
(PID.TID 0000.0001) %MON extforcing_qsw_min           =   0.0000000000000E+00
(PID.TID 0000.0001) %MON extforcing_qsw_mean          =   0.0000000000000E+00
(PID.TID 0000.0001) %MON extforcing_qsw_sd            =   0.0000000000000E+00
(PID.TID 0000.0001) %MON extforcing_qsw_del2          =   0.0000000000000E+00
(PID.TID 0000.0001) %MON extforcing_empmr_max         =   0.0000000000000E+00
(PID.TID 0000.0001) %MON extforcing_empmr_min         =   0.0000000000000E+00
(PID.TID 0000.0001) %MON extforcing_empmr_mean        =   0.0000000000000E+00
(PID.TID 0000.0001) %MON extforcing_empmr_sd          =   0.0000000000000E+00
(PID.TID 0000.0001) %MON extforcing_empmr_del2        =   0.0000000000000E+00
(PID.TID 0000.0001) %MON extforcing_fu_max            =   2.9492541849613E-01
(PID.TID 0000.0001) %MON extforcing_fu_min            =  -2.0411288440228E-01
(PID.TID 0000.0001) %MON extforcing_fu_mean           =   1.7250640108353E-02
(PID.TID 0000.0001) %MON extforcing_fu_sd             =   9.1176576117499E-02
(PID.TID 0000.0001) %MON extforcing_fu_del2           =   7.6268744055427E-03
(PID.TID 0000.0001) %MON extforcing_fv_max            =   1.8680121054252E-01
(PID.TID 0000.0001) %MON extforcing_fv_min            =  -1.7747596303622E-01
(PID.TID 0000.0001) %MON extforcing_fv_mean           =  -6.7598985939541E-03
(PID.TID 0000.0001) %MON extforcing_fv_sd             =   4.4539193201071E-02
(PID.TID 0000.0001) %MON extforcing_fv_del2           =   4.6466994937672E-03
(PID.TID 0000.0001) %MON advcfl_uvel_max              =   2.7280302164791E-02
(PID.TID 0000.0001) %MON advcfl_vvel_max              =   1.5380023340768E-02
(PID.TID 0000.0001) %MON advcfl_wvel_max              =   1.6404122255321E-01
(PID.TID 0000.0001) %MON advcfl_W_hf_max              =   1.5170687127984E-01
(PID.TID 0000.0001) %MON pe_b_mean                    =   2.6189048140616E-04
(PID.TID 0000.0001) %MON ke_max                       =   2.2342351410326E-02
(PID.TID 0000.0001) %MON ke_mean                      =   2.1796626035423E-04
(PID.TID 0000.0001) %MON ke_vol                       =   1.3226782436723E+18
(PID.TID 0000.0001) %MON vort_r_min                   =  -4.9496232639345E-07
(PID.TID 0000.0001) %MON vort_r_max                   =   4.4273438794629E-07
(PID.TID 0000.0001) %MON vort_a_mean                  =  -2.5205769043838E-05
(PID.TID 0000.0001) %MON vort_a_sd                    =   7.3403589256413E-05
(PID.TID 0000.0001) %MON vort_p_mean                  =  -3.1758669116980E-05
(PID.TID 0000.0001) %MON vort_p_sd                    =   1.3126473668651E-04
(PID.TID 0000.0001) %MON surfExpan_theta_mean         =   3.7297415421204E-06
(PID.TID 0000.0001) %MON surfExpan_salt_mean          =   3.2608606803268E-07
(PID.TID 0000.0001) // =======================================================
(PID.TID 0000.0001) // End MONITOR dynamic field statistics
(PID.TID 0000.0001) // =======================================================
time,SST,SSS,fu,fv,Q,E-P,i0,i1,a,b =   3.3264E+06 -2.0896E-01  3.4485E+01 -1.9028E-02 -2.6220E-02  2.4596E+02  0.0000E+00     1     2  7.8333E-01  2.1667E-01
time,fu0,fu1,fu =   3.3264E+06 -3.5633E-02 -1.4435E-02 -1.9028E-02  7.833333333333333E-01  2.166666666666667E-01
 cg2d: Sum(rhs),rhsMax =   2.38429415100327E-12  9.54305632483002E+00
(PID.TID 0000.0001)                    cg2d_init_res =    3.61247593276259E-01
(PID.TID 0000.0001)                       cg2d_iters =    24
(PID.TID 0000.0001)                         cg2d_res =    6.18114693720938E-14
(PID.TID 0000.0001) // =======================================================
(PID.TID 0000.0001) // Begin MONITOR dynamic field statistics
(PID.TID 0000.0001) // =======================================================
(PID.TID 0000.0001) %MON time_tsnumber                =                    78
(PID.TID 0000.0001) %MON time_secondsf                =   3.3696000000000E+06
(PID.TID 0000.0001) %MON dynstat_eta_max              =   1.0520460440439E+00
(PID.TID 0000.0001) %MON dynstat_eta_min              =  -1.3734597772825E+00
(PID.TID 0000.0001) %MON dynstat_eta_mean             =  -1.3827644923390E-15
(PID.TID 0000.0001) %MON dynstat_eta_sd               =   4.5301317203613E-01
(PID.TID 0000.0001) %MON dynstat_eta_del2             =   2.5616370421826E-02
(PID.TID 0000.0001) %MON dynstat_uvel_max             =   2.1013322437352E-01
(PID.TID 0000.0001) %MON dynstat_uvel_min             =  -1.4382445187799E-01
(PID.TID 0000.0001) %MON dynstat_uvel_mean            =   1.4170103061700E-03
(PID.TID 0000.0001) %MON dynstat_uvel_sd              =   1.6159101525335E-02
(PID.TID 0000.0001) %MON dynstat_uvel_del2            =   3.4417541749362E-03
(PID.TID 0000.0001) %MON dynstat_vvel_max             =   1.5545441764749E-01
(PID.TID 0000.0001) %MON dynstat_vvel_min             =  -1.1718710739062E-01
(PID.TID 0000.0001) %MON dynstat_vvel_mean            =  -1.1126540876073E-03
(PID.TID 0000.0001) %MON dynstat_vvel_sd              =   1.4434239960863E-02
(PID.TID 0000.0001) %MON dynstat_vvel_del2            =   3.4470032880982E-03
(PID.TID 0000.0001) %MON dynstat_wvel_max             =   1.9125602185852E-04
(PID.TID 0000.0001) %MON dynstat_wvel_min             =  -1.2005276088569E-04
(PID.TID 0000.0001) %MON dynstat_wvel_mean            =   7.1265019398333E-23
(PID.TID 0000.0001) %MON dynstat_wvel_sd              =   1.9693938568021E-05
(PID.TID 0000.0001) %MON dynstat_wvel_del2            =   6.6223010339248E-06
(PID.TID 0000.0001) %MON dynstat_theta_max            =   2.9556668131158E+01
(PID.TID 0000.0001) %MON dynstat_theta_min            =  -2.0317118998648E+00
(PID.TID 0000.0001) %MON dynstat_theta_mean           =   3.5893568158397E+00
(PID.TID 0000.0001) %MON dynstat_theta_sd             =   4.3415996683159E+00
(PID.TID 0000.0001) %MON dynstat_theta_del2           =   1.3825585852366E-01
(PID.TID 0000.0001) %MON dynstat_salt_max             =   3.7389402925671E+01
(PID.TID 0000.0001) %MON dynstat_salt_min             =   2.9881099611212E+01
(PID.TID 0000.0001) %MON dynstat_salt_mean            =   3.4715968213062E+01
(PID.TID 0000.0001) %MON dynstat_salt_sd              =   2.9552487130516E-01
(PID.TID 0000.0001) %MON dynstat_salt_del2            =   2.5586908778287E-02
(PID.TID 0000.0001) %MON dynstat_sst_max              =   2.9556668131158E+01
(PID.TID 0000.0001) %MON dynstat_sst_min              =  -1.9293439335366E+00
(PID.TID 0000.0001) %MON dynstat_sst_mean             =   1.8640536690826E+01
(PID.TID 0000.0001) %MON dynstat_sst_sd               =   8.9096189291069E+00
(PID.TID 0000.0001) %MON dynstat_sst_del2             =   2.7047200039299E-01
(PID.TID 0000.0001) %MON dynstat_sss_max              =   3.7389401098916E+01
(PID.TID 0000.0001) %MON dynstat_sss_min              =   2.9881099611212E+01
(PID.TID 0000.0001) %MON dynstat_sss_mean             =   3.4842616936168E+01
(PID.TID 0000.0001) %MON dynstat_sss_sd               =   9.5931471367223E-01
(PID.TID 0000.0001) %MON dynstat_sss_del2             =   7.9799921696339E-02
(PID.TID 0000.0001) %MON extforcing_qnet_max          =   3.6725460103353E+02
(PID.TID 0000.0001) %MON extforcing_qnet_min          =  -1.7439084421794E+02
(PID.TID 0000.0001) %MON extforcing_qnet_mean         =  -1.4517160567065E+01
(PID.TID 0000.0001) %MON extforcing_qnet_sd           =   8.5695643106463E+01
(PID.TID 0000.0001) %MON extforcing_qnet_del2         =   8.7174757327856E+00
(PID.TID 0000.0001) %MON extforcing_qsw_max           =   0.0000000000000E+00
(PID.TID 0000.0001) %MON extforcing_qsw_min           =   0.0000000000000E+00
(PID.TID 0000.0001) %MON extforcing_qsw_mean          =   0.0000000000000E+00
(PID.TID 0000.0001) %MON extforcing_qsw_sd            =   0.0000000000000E+00
(PID.TID 0000.0001) %MON extforcing_qsw_del2          =   0.0000000000000E+00
(PID.TID 0000.0001) %MON extforcing_empmr_max         =   0.0000000000000E+00
(PID.TID 0000.0001) %MON extforcing_empmr_min         =   0.0000000000000E+00
(PID.TID 0000.0001) %MON extforcing_empmr_mean        =   0.0000000000000E+00
(PID.TID 0000.0001) %MON extforcing_empmr_sd          =   0.0000000000000E+00
(PID.TID 0000.0001) %MON extforcing_empmr_del2        =   0.0000000000000E+00
(PID.TID 0000.0001) %MON extforcing_fu_max            =   2.9561899751425E-01
(PID.TID 0000.0001) %MON extforcing_fu_min            =  -2.0494284629822E-01
(PID.TID 0000.0001) %MON extforcing_fu_mean           =   1.7277790216087E-02
(PID.TID 0000.0001) %MON extforcing_fu_sd             =   9.1280919650502E-02
(PID.TID 0000.0001) %MON extforcing_fu_del2           =   7.6532903151135E-03
(PID.TID 0000.0001) %MON extforcing_fv_max            =   1.8785719300310E-01
(PID.TID 0000.0001) %MON extforcing_fv_min            =  -1.7906191249688E-01
(PID.TID 0000.0001) %MON extforcing_fv_mean           =  -6.7925290473117E-03
(PID.TID 0000.0001) %MON extforcing_fv_sd             =   4.4549836721568E-02
(PID.TID 0000.0001) %MON extforcing_fv_del2           =   4.6742116193687E-03
(PID.TID 0000.0001) %MON advcfl_uvel_max              =   2.7468074838445E-02
(PID.TID 0000.0001) %MON advcfl_vvel_max              =   1.5101150079897E-02
(PID.TID 0000.0001) %MON advcfl_wvel_max              =   1.5145432754920E-01
(PID.TID 0000.0001) %MON advcfl_W_hf_max              =   1.4006532898365E-01
(PID.TID 0000.0001) %MON pe_b_mean                    =   2.6260492096204E-04
(PID.TID 0000.0001) %MON ke_max                       =   2.2631132659976E-02
(PID.TID 0000.0001) %MON ke_mean                      =   2.1363345470910E-04
(PID.TID 0000.0001) %MON ke_vol                       =   1.3226782436723E+18
(PID.TID 0000.0001) %MON vort_r_min                   =  -4.9374650638474E-07
(PID.TID 0000.0001) %MON vort_r_max                   =   4.4342160997854E-07
(PID.TID 0000.0001) %MON vort_a_mean                  =  -2.5205769051953E-05
(PID.TID 0000.0001) %MON vort_a_sd                    =   7.3403605208551E-05
(PID.TID 0000.0001) %MON vort_p_mean                  =  -3.1758669127205E-05
(PID.TID 0000.0001) %MON vort_p_sd                    =   1.3126472329156E-04
(PID.TID 0000.0001) %MON surfExpan_theta_mean         =   4.2144056770537E-06
(PID.TID 0000.0001) %MON surfExpan_salt_mean          =   2.6687315908732E-07
(PID.TID 0000.0001) // =======================================================
(PID.TID 0000.0001) // End MONITOR dynamic field statistics
(PID.TID 0000.0001) // =======================================================
time,SST,SSS,fu,fv,Q,E-P,i0,i1,a,b =   3.3696E+06 -2.3380E-01  3.4480E+01 -1.8674E-02 -2.5560E-02  2.4554E+02  0.0000E+00     1     2  8.0000E-01  2.0000E-01
time,fu0,fu1,fu =   3.3696E+06 -3.5633E-02 -1.4435E-02 -1.8674E-02  8.000000000000000E-01  2.000000000000000E-01
 cg2d: Sum(rhs),rhsMax =   2.31471092293489E-12  9.54625943469643E+00
(PID.TID 0000.0001)                    cg2d_init_res =    3.42502395617995E-01
(PID.TID 0000.0001)                       cg2d_iters =    24
(PID.TID 0000.0001)                         cg2d_res =    6.12085279297404E-14
(PID.TID 0000.0001) // =======================================================
(PID.TID 0000.0001) // Begin MONITOR dynamic field statistics
(PID.TID 0000.0001) // =======================================================
(PID.TID 0000.0001) %MON time_tsnumber                =                    79
(PID.TID 0000.0001) %MON time_secondsf                =   3.4128000000000E+06
(PID.TID 0000.0001) %MON dynstat_eta_max              =   1.0517058015861E+00
(PID.TID 0000.0001) %MON dynstat_eta_min              =  -1.3745767268830E+00
(PID.TID 0000.0001) %MON dynstat_eta_mean             =  -1.3679134788644E-15
(PID.TID 0000.0001) %MON dynstat_eta_sd               =   4.5368619453359E-01
(PID.TID 0000.0001) %MON dynstat_eta_del2             =   2.5755225467188E-02
(PID.TID 0000.0001) %MON dynstat_uvel_max             =   2.1010842536169E-01
(PID.TID 0000.0001) %MON dynstat_uvel_min             =  -1.4207828121100E-01
(PID.TID 0000.0001) %MON dynstat_uvel_mean            =   1.4926820240024E-03
(PID.TID 0000.0001) %MON dynstat_uvel_sd              =   1.5883446691742E-02
(PID.TID 0000.0001) %MON dynstat_uvel_del2            =   3.4178418819321E-03
(PID.TID 0000.0001) %MON dynstat_vvel_max             =   1.5178212088186E-01
(PID.TID 0000.0001) %MON dynstat_vvel_min             =  -1.1665777817002E-01
(PID.TID 0000.0001) %MON dynstat_vvel_mean            =  -1.0357495115833E-03
(PID.TID 0000.0001) %MON dynstat_vvel_sd              =   1.4401865620949E-02
(PID.TID 0000.0001) %MON dynstat_vvel_del2            =   3.4278655324893E-03
(PID.TID 0000.0001) %MON dynstat_wvel_max             =   1.8861570717312E-04
(PID.TID 0000.0001) %MON dynstat_wvel_min             =  -1.1213995240198E-04
(PID.TID 0000.0001) %MON dynstat_wvel_mean            =  -2.0611118902910E-22
(PID.TID 0000.0001) %MON dynstat_wvel_sd              =   1.9391585398248E-05
(PID.TID 0000.0001) %MON dynstat_wvel_del2            =   6.5650724863607E-06
(PID.TID 0000.0001) %MON dynstat_theta_max            =   2.9571641701212E+01
(PID.TID 0000.0001) %MON dynstat_theta_min            =  -2.0316101873879E+00
(PID.TID 0000.0001) %MON dynstat_theta_mean           =   3.5893432998952E+00
(PID.TID 0000.0001) %MON dynstat_theta_sd             =   4.3417322601381E+00
(PID.TID 0000.0001) %MON dynstat_theta_del2           =   1.3843225450807E-01
(PID.TID 0000.0001) %MON dynstat_salt_max             =   3.7389444325932E+01
(PID.TID 0000.0001) %MON dynstat_salt_min             =   2.9882019801828E+01
(PID.TID 0000.0001) %MON dynstat_salt_mean            =   3.4715965874689E+01
(PID.TID 0000.0001) %MON dynstat_salt_sd              =   2.9550876325584E-01
(PID.TID 0000.0001) %MON dynstat_salt_del2            =   2.5586847507872E-02
(PID.TID 0000.0001) %MON dynstat_sst_max              =   2.9571641701212E+01
(PID.TID 0000.0001) %MON dynstat_sst_min              =  -1.9287389591244E+00
(PID.TID 0000.0001) %MON dynstat_sst_mean             =   1.8641165631228E+01
(PID.TID 0000.0001) %MON dynstat_sst_sd               =   8.9125664428524E+00
(PID.TID 0000.0001) %MON dynstat_sst_del2             =   2.7038136375090E-01
(PID.TID 0000.0001) %MON dynstat_sss_max              =   3.7389442498751E+01
(PID.TID 0000.0001) %MON dynstat_sss_min              =   2.9882019801828E+01
(PID.TID 0000.0001) %MON dynstat_sss_mean             =   3.4842244768549E+01
(PID.TID 0000.0001) %MON dynstat_sss_sd               =   9.5907486988279E-01
(PID.TID 0000.0001) %MON dynstat_sss_del2             =   7.9753540689708E-02
(PID.TID 0000.0001) %MON extforcing_qnet_max          =   3.6657749633789E+02
(PID.TID 0000.0001) %MON extforcing_qnet_min          =  -1.7427108459473E+02
(PID.TID 0000.0001) %MON extforcing_qnet_mean         =  -1.4474705983364E+01
(PID.TID 0000.0001) %MON extforcing_qnet_sd           =   8.5215174338696E+01
(PID.TID 0000.0001) %MON extforcing_qnet_del2         =   8.7049136130238E+00
(PID.TID 0000.0001) %MON extforcing_qsw_max           =   0.0000000000000E+00
(PID.TID 0000.0001) %MON extforcing_qsw_min           =   0.0000000000000E+00
(PID.TID 0000.0001) %MON extforcing_qsw_mean          =   0.0000000000000E+00
(PID.TID 0000.0001) %MON extforcing_qsw_sd            =   0.0000000000000E+00
(PID.TID 0000.0001) %MON extforcing_qsw_del2          =   0.0000000000000E+00
(PID.TID 0000.0001) %MON extforcing_empmr_max         =   0.0000000000000E+00
(PID.TID 0000.0001) %MON extforcing_empmr_min         =   0.0000000000000E+00
(PID.TID 0000.0001) %MON extforcing_empmr_mean        =   0.0000000000000E+00
(PID.TID 0000.0001) %MON extforcing_empmr_sd          =   0.0000000000000E+00
(PID.TID 0000.0001) %MON extforcing_empmr_del2        =   0.0000000000000E+00
(PID.TID 0000.0001) %MON extforcing_fu_max            =   2.9631257653236E-01
(PID.TID 0000.0001) %MON extforcing_fu_min            =  -2.0577280819416E-01
(PID.TID 0000.0001) %MON extforcing_fu_mean           =   1.7304940323822E-02
(PID.TID 0000.0001) %MON extforcing_fu_sd             =   9.1389471133942E-02
(PID.TID 0000.0001) %MON extforcing_fu_del2           =   7.6807862381034E-03
(PID.TID 0000.0001) %MON extforcing_fv_max            =   1.8891317546368E-01
(PID.TID 0000.0001) %MON extforcing_fv_min            =  -1.8064786195755E-01
(PID.TID 0000.0001) %MON extforcing_fv_mean           =  -6.8251595006693E-03
(PID.TID 0000.0001) %MON extforcing_fv_sd             =   4.4564502921920E-02
(PID.TID 0000.0001) %MON extforcing_fv_del2           =   4.7030278960052E-03
(PID.TID 0000.0001) %MON advcfl_uvel_max              =   2.7464833175377E-02
(PID.TID 0000.0001) %MON advcfl_vvel_max              =   1.4744415897396E-02
(PID.TID 0000.0001) %MON advcfl_wvel_max              =   1.3473947630039E-01
(PID.TID 0000.0001) %MON advcfl_W_hf_max              =   1.2460372030227E-01
(PID.TID 0000.0001) %MON pe_b_mean                    =   2.6338578261247E-04
(PID.TID 0000.0001) %MON ke_max                       =   2.2714098438201E-02
(PID.TID 0000.0001) %MON ke_mean                      =   2.0922737788593E-04
(PID.TID 0000.0001) %MON ke_vol                       =   1.3226782436723E+18
(PID.TID 0000.0001) %MON vort_r_min                   =  -4.9113878774795E-07
(PID.TID 0000.0001) %MON vort_r_max                   =   4.3651131617251E-07
(PID.TID 0000.0001) %MON vort_a_mean                  =  -2.5205769061391E-05
(PID.TID 0000.0001) %MON vort_a_sd                    =   7.3403619088966E-05
(PID.TID 0000.0001) %MON vort_p_mean                  =  -3.1758669139097E-05
(PID.TID 0000.0001) %MON vort_p_sd                    =   1.3126470471413E-04
(PID.TID 0000.0001) %MON surfExpan_theta_mean         =   4.8138245691644E-06
(PID.TID 0000.0001) %MON surfExpan_salt_mean          =   2.0765073580208E-07
(PID.TID 0000.0001) // =======================================================
(PID.TID 0000.0001) // End MONITOR dynamic field statistics
(PID.TID 0000.0001) // =======================================================
time,SST,SSS,fu,fv,Q,E-P,i0,i1,a,b =   3.4128E+06 -2.5864E-01  3.4475E+01 -1.8321E-02 -2.4899E-02  2.4512E+02  0.0000E+00     1     2  8.1667E-01  1.8333E-01
time,fu0,fu1,fu =   3.4128E+06 -3.5633E-02 -1.4435E-02 -1.8321E-02  8.166666666666667E-01  1.833333333333333E-01
 cg2d: Sum(rhs),rhsMax =   1.98758370872909E-12  9.44553340487738E+00
(PID.TID 0000.0001)                    cg2d_init_res =    3.30886953315058E-01
(PID.TID 0000.0001)                       cg2d_iters =    24
(PID.TID 0000.0001)                         cg2d_res =    6.19195832291325E-14
(PID.TID 0000.0001) // =======================================================
(PID.TID 0000.0001) // Begin MONITOR dynamic field statistics
(PID.TID 0000.0001) // =======================================================
(PID.TID 0000.0001) %MON time_tsnumber                =                    80
(PID.TID 0000.0001) %MON time_secondsf                =   3.4560000000000E+06
(PID.TID 0000.0001) %MON dynstat_eta_max              =   1.0393458193432E+00
(PID.TID 0000.0001) %MON dynstat_eta_min              =  -1.3732286021186E+00
(PID.TID 0000.0001) %MON dynstat_eta_mean             =  -1.6540307413222E-15
(PID.TID 0000.0001) %MON dynstat_eta_sd               =   4.5440801882435E-01
(PID.TID 0000.0001) %MON dynstat_eta_del2             =   2.5840704163856E-02
(PID.TID 0000.0001) %MON dynstat_uvel_max             =   2.0863870670000E-01
(PID.TID 0000.0001) %MON dynstat_uvel_min             =  -1.4013444749730E-01
(PID.TID 0000.0001) %MON dynstat_uvel_mean            =   1.5564174867351E-03
(PID.TID 0000.0001) %MON dynstat_uvel_sd              =   1.5607939462502E-02
(PID.TID 0000.0001) %MON dynstat_uvel_del2            =   3.3967189458424E-03
(PID.TID 0000.0001) %MON dynstat_vvel_max             =   1.4941095430463E-01
(PID.TID 0000.0001) %MON dynstat_vvel_min             =  -1.1600007683737E-01
(PID.TID 0000.0001) %MON dynstat_vvel_mean            =  -9.6233293468483E-04
(PID.TID 0000.0001) %MON dynstat_vvel_sd              =   1.4365801952184E-02
(PID.TID 0000.0001) %MON dynstat_vvel_del2            =   3.4097853741591E-03
(PID.TID 0000.0001) %MON dynstat_wvel_max             =   1.8557911997608E-04
(PID.TID 0000.0001) %MON dynstat_wvel_min             =  -1.1857280308728E-04
(PID.TID 0000.0001) %MON dynstat_wvel_mean            =   2.2966740883022E-22
(PID.TID 0000.0001) %MON dynstat_wvel_sd              =   1.9117608850729E-05
(PID.TID 0000.0001) %MON dynstat_wvel_del2            =   6.5266314010392E-06
(PID.TID 0000.0001) %MON dynstat_theta_max            =   2.9586396704580E+01
(PID.TID 0000.0001) %MON dynstat_theta_min            =  -2.0314182248284E+00
(PID.TID 0000.0001) %MON dynstat_theta_mean           =   3.5893223700188E+00
(PID.TID 0000.0001) %MON dynstat_theta_sd             =   4.3418428506960E+00
(PID.TID 0000.0001) %MON dynstat_theta_del2           =   1.3864702919429E-01
(PID.TID 0000.0001) %MON dynstat_salt_max             =   3.7389485710957E+01
(PID.TID 0000.0001) %MON dynstat_salt_min             =   2.9882816122068E+01
(PID.TID 0000.0001) %MON dynstat_salt_mean            =   3.4715964217654E+01
(PID.TID 0000.0001) %MON dynstat_salt_sd              =   2.9549311816833E-01
(PID.TID 0000.0001) %MON dynstat_salt_del2            =   2.5594341082187E-02
(PID.TID 0000.0001) %MON dynstat_sst_max              =   2.9586396704580E+01
(PID.TID 0000.0001) %MON dynstat_sst_min              =  -1.9283156169467E+00
(PID.TID 0000.0001) %MON dynstat_sst_mean             =   1.8641563290443E+01
(PID.TID 0000.0001) %MON dynstat_sst_sd               =   8.9154993389586E+00
(PID.TID 0000.0001) %MON dynstat_sst_del2             =   2.7051212386250E-01
(PID.TID 0000.0001) %MON dynstat_sss_max              =   3.7389483895116E+01
(PID.TID 0000.0001) %MON dynstat_sss_min              =   2.9882816122068E+01
(PID.TID 0000.0001) %MON dynstat_sss_mean             =   3.4841845149271E+01
(PID.TID 0000.0001) %MON dynstat_sss_sd               =   9.5879704585423E-01
(PID.TID 0000.0001) %MON dynstat_sss_del2             =   7.9752328310454E-02
(PID.TID 0000.0001) %MON extforcing_qnet_max          =   3.6590039164225E+02
(PID.TID 0000.0001) %MON extforcing_qnet_min          =  -1.7415132497152E+02
(PID.TID 0000.0001) %MON extforcing_qnet_mean         =  -1.4432251399662E+01
(PID.TID 0000.0001) %MON extforcing_qnet_sd           =   8.4736525977910E+01
(PID.TID 0000.0001) %MON extforcing_qnet_del2         =   8.6924102653436E+00
(PID.TID 0000.0001) %MON extforcing_qsw_max           =   0.0000000000000E+00
(PID.TID 0000.0001) %MON extforcing_qsw_min           =   0.0000000000000E+00
(PID.TID 0000.0001) %MON extforcing_qsw_mean          =   0.0000000000000E+00
(PID.TID 0000.0001) %MON extforcing_qsw_sd            =   0.0000000000000E+00
(PID.TID 0000.0001) %MON extforcing_qsw_del2          =   0.0000000000000E+00
(PID.TID 0000.0001) %MON extforcing_empmr_max         =   0.0000000000000E+00
(PID.TID 0000.0001) %MON extforcing_empmr_min         =   0.0000000000000E+00
(PID.TID 0000.0001) %MON extforcing_empmr_mean        =   0.0000000000000E+00
(PID.TID 0000.0001) %MON extforcing_empmr_sd          =   0.0000000000000E+00
(PID.TID 0000.0001) %MON extforcing_empmr_del2        =   0.0000000000000E+00
(PID.TID 0000.0001) %MON extforcing_fu_max            =   2.9700615555048E-01
(PID.TID 0000.0001) %MON extforcing_fu_min            =  -2.0660277009010E-01
(PID.TID 0000.0001) %MON extforcing_fu_mean           =   1.7332090431556E-02
(PID.TID 0000.0001) %MON extforcing_fu_sd             =   9.1502215591815E-02
(PID.TID 0000.0001) %MON extforcing_fu_del2           =   7.7093865384859E-03
(PID.TID 0000.0001) %MON extforcing_fv_max            =   1.8996915792425E-01
(PID.TID 0000.0001) %MON extforcing_fv_min            =  -1.8223381141822E-01
(PID.TID 0000.0001) %MON extforcing_fv_mean           =  -6.8577899540269E-03
(PID.TID 0000.0001) %MON extforcing_fv_sd             =   4.4583187832196E-02
(PID.TID 0000.0001) %MON extforcing_fv_del2           =   4.7329808100075E-03
(PID.TID 0000.0001) %MON advcfl_uvel_max              =   2.7272715330561E-02
(PID.TID 0000.0001) %MON advcfl_vvel_max              =   1.4514076078887E-02
(PID.TID 0000.0001) %MON advcfl_wvel_max              =   1.1469515853201E-01
(PID.TID 0000.0001) %MON advcfl_W_hf_max              =   1.0606108989633E-01
(PID.TID 0000.0001) %MON pe_b_mean                    =   2.6422455398836E-04
(PID.TID 0000.0001) %MON ke_max                       =   2.2586652249282E-02
(PID.TID 0000.0001) %MON ke_mean                      =   2.0484236064785E-04
(PID.TID 0000.0001) %MON ke_vol                       =   1.3226782436723E+18
(PID.TID 0000.0001) %MON vort_r_min                   =  -4.8701904299013E-07
(PID.TID 0000.0001) %MON vort_r_max                   =   4.2676784713502E-07
(PID.TID 0000.0001) %MON vort_a_mean                  =  -2.5205769071111E-05
(PID.TID 0000.0001) %MON vort_a_sd                    =   7.3403630758414E-05
(PID.TID 0000.0001) %MON vort_p_mean                  =  -3.1758669151344E-05
(PID.TID 0000.0001) %MON vort_p_sd                    =   1.3126468057635E-04
(PID.TID 0000.0001) %MON surfExpan_theta_mean         =   5.5091078573416E-06
(PID.TID 0000.0001) %MON surfExpan_salt_mean          =   1.5162039021861E-07
(PID.TID 0000.0001) // =======================================================
(PID.TID 0000.0001) // End MONITOR dynamic field statistics
(PID.TID 0000.0001) // =======================================================
time,SST,SSS,fu,fv,Q,E-P,i0,i1,a,b =   3.4560E+06 -2.8348E-01  3.4470E+01 -1.7968E-02 -2.4239E-02  2.4470E+02  0.0000E+00     1     2  8.3333E-01  1.6667E-01
time,fu0,fu1,fu =   3.4560E+06 -3.5633E-02 -1.4435E-02 -1.7968E-02  8.333333333333334E-01  1.666666666666666E-01
 cg2d: Sum(rhs),rhsMax =   2.28859986517449E-12  9.24503735083036E+00
(PID.TID 0000.0001)                    cg2d_init_res =    3.27336453444680E-01
(PID.TID 0000.0001)                       cg2d_iters =    24
(PID.TID 0000.0001)                         cg2d_res =    6.32824814553991E-14
(PID.TID 0000.0001) // =======================================================
(PID.TID 0000.0001) // Begin MONITOR dynamic field statistics
(PID.TID 0000.0001) // =======================================================
(PID.TID 0000.0001) %MON time_tsnumber                =                    81
(PID.TID 0000.0001) %MON time_secondsf                =   3.4992000000000E+06
(PID.TID 0000.0001) %MON dynstat_eta_max              =   1.0158937005209E+00
(PID.TID 0000.0001) %MON dynstat_eta_min              =  -1.3697472472433E+00
(PID.TID 0000.0001) %MON dynstat_eta_mean             =  -1.7897841455799E-15
(PID.TID 0000.0001) %MON dynstat_eta_sd               =   4.5517705827105E-01
(PID.TID 0000.0001) %MON dynstat_eta_del2             =   2.5893228281267E-02
(PID.TID 0000.0001) %MON dynstat_uvel_max             =   2.0576330259769E-01
(PID.TID 0000.0001) %MON dynstat_uvel_min             =  -1.3800680108872E-01
(PID.TID 0000.0001) %MON dynstat_uvel_mean            =   1.6078170007563E-03
(PID.TID 0000.0001) %MON dynstat_uvel_sd              =   1.5336675999884E-02
(PID.TID 0000.0001) %MON dynstat_uvel_del2            =   3.3819495280421E-03
(PID.TID 0000.0001) %MON dynstat_vvel_max             =   1.5100402683673E-01
(PID.TID 0000.0001) %MON dynstat_vvel_min             =  -1.1522263834326E-01
(PID.TID 0000.0001) %MON dynstat_vvel_mean            =  -8.9271794246639E-04
(PID.TID 0000.0001) %MON dynstat_vvel_sd              =   1.4328154034384E-02
(PID.TID 0000.0001) %MON dynstat_vvel_del2            =   3.3934774916061E-03
(PID.TID 0000.0001) %MON dynstat_wvel_max             =   1.8223586330536E-04
(PID.TID 0000.0001) %MON dynstat_wvel_min             =  -1.3193750040782E-04
(PID.TID 0000.0001) %MON dynstat_wvel_mean            =   7.1184740168241E-23
(PID.TID 0000.0001) %MON dynstat_wvel_sd              =   1.8883868228868E-05
(PID.TID 0000.0001) %MON dynstat_wvel_del2            =   6.5057200888483E-06
(PID.TID 0000.0001) %MON dynstat_theta_max            =   2.9600739409636E+01
(PID.TID 0000.0001) %MON dynstat_theta_min            =  -2.0311303068065E+00
(PID.TID 0000.0001) %MON dynstat_theta_mean           =   3.5892931032448E+00
(PID.TID 0000.0001) %MON dynstat_theta_sd             =   4.3419281001699E+00
(PID.TID 0000.0001) %MON dynstat_theta_del2           =   1.3880721318993E-01
(PID.TID 0000.0001) %MON dynstat_salt_max             =   3.7389515079794E+01
(PID.TID 0000.0001) %MON dynstat_salt_min             =   2.9883497409512E+01
(PID.TID 0000.0001) %MON dynstat_salt_mean            =   3.4715963185502E+01
(PID.TID 0000.0001) %MON dynstat_salt_sd              =   2.9547870359817E-01
(PID.TID 0000.0001) %MON dynstat_salt_del2            =   2.5589524918177E-02
(PID.TID 0000.0001) %MON dynstat_sst_max              =   2.9600739409636E+01
(PID.TID 0000.0001) %MON dynstat_sst_min              =  -1.9280819840660E+00
(PID.TID 0000.0001) %MON dynstat_sst_mean             =   1.8641889035237E+01
(PID.TID 0000.0001) %MON dynstat_sst_sd               =   8.9183291579944E+00
(PID.TID 0000.0001) %MON dynstat_sst_del2             =   2.7043068658957E-01
(PID.TID 0000.0001) %MON dynstat_sss_max              =   3.7389513286267E+01
(PID.TID 0000.0001) %MON dynstat_sss_min              =   2.9883497409512E+01
(PID.TID 0000.0001) %MON dynstat_sss_mean             =   3.4841457853611E+01
(PID.TID 0000.0001) %MON dynstat_sss_sd               =   9.5853322680977E-01
(PID.TID 0000.0001) %MON dynstat_sss_del2             =   7.9701489002234E-02
(PID.TID 0000.0001) %MON extforcing_qnet_max          =   3.6522328694661E+02
(PID.TID 0000.0001) %MON extforcing_qnet_min          =  -1.7403156534831E+02
(PID.TID 0000.0001) %MON extforcing_qnet_mean         =  -1.4389796815960E+01
(PID.TID 0000.0001) %MON extforcing_qnet_sd           =   8.4259729047287E+01
(PID.TID 0000.0001) %MON extforcing_qnet_del2         =   8.6801912498386E+00
(PID.TID 0000.0001) %MON extforcing_qsw_max           =   0.0000000000000E+00
(PID.TID 0000.0001) %MON extforcing_qsw_min           =   0.0000000000000E+00
(PID.TID 0000.0001) %MON extforcing_qsw_mean          =   0.0000000000000E+00
(PID.TID 0000.0001) %MON extforcing_qsw_sd            =   0.0000000000000E+00
(PID.TID 0000.0001) %MON extforcing_qsw_del2          =   0.0000000000000E+00
(PID.TID 0000.0001) %MON extforcing_empmr_max         =   0.0000000000000E+00
(PID.TID 0000.0001) %MON extforcing_empmr_min         =   0.0000000000000E+00
(PID.TID 0000.0001) %MON extforcing_empmr_mean        =   0.0000000000000E+00
(PID.TID 0000.0001) %MON extforcing_empmr_sd          =   0.0000000000000E+00
(PID.TID 0000.0001) %MON extforcing_empmr_del2        =   0.0000000000000E+00
(PID.TID 0000.0001) %MON extforcing_fu_max            =   2.9769973456860E-01
(PID.TID 0000.0001) %MON extforcing_fu_min            =  -2.0743273198605E-01
(PID.TID 0000.0001) %MON extforcing_fu_mean           =   1.7359240539291E-02
(PID.TID 0000.0001) %MON extforcing_fu_sd             =   9.1619137544782E-02
(PID.TID 0000.0001) %MON extforcing_fu_del2           =   7.7392025548934E-03
(PID.TID 0000.0001) %MON extforcing_fv_max            =   1.9102514038483E-01
(PID.TID 0000.0001) %MON extforcing_fv_min            =  -1.8381976087888E-01
(PID.TID 0000.0001) %MON extforcing_fv_mean           =  -6.8904204073845E-03
(PID.TID 0000.0001) %MON extforcing_fv_sd             =   4.4605886402216E-02
(PID.TID 0000.0001) %MON extforcing_fv_del2           =   4.7645919332603E-03
(PID.TID 0000.0001) %MON advcfl_uvel_max              =   2.6896849898960E-02
(PID.TID 0000.0001) %MON advcfl_vvel_max              =   1.4668830300475E-02
(PID.TID 0000.0001) %MON advcfl_wvel_max              =   9.2204699247767E-02
(PID.TID 0000.0001) %MON advcfl_W_hf_max              =   8.5255058063143E-02
(PID.TID 0000.0001) %MON pe_b_mean                    =   2.6511965725815E-04
(PID.TID 0000.0001) %MON ke_max                       =   2.2249693729899E-02
(PID.TID 0000.0001) %MON ke_mean                      =   2.0055970824223E-04
(PID.TID 0000.0001) %MON ke_vol                       =   1.3226782436723E+18
(PID.TID 0000.0001) %MON vort_r_min                   =  -4.8131808674354E-07
(PID.TID 0000.0001) %MON vort_r_max                   =   4.2617062916233E-07
(PID.TID 0000.0001) %MON vort_a_mean                  =  -2.5205769080483E-05
(PID.TID 0000.0001) %MON vort_a_sd                    =   7.3403640096763E-05
(PID.TID 0000.0001) %MON vort_p_mean                  =  -3.1758669163152E-05
(PID.TID 0000.0001) %MON vort_p_sd                    =   1.3126465063889E-04
(PID.TID 0000.0001) %MON surfExpan_theta_mean         =   6.2767378134529E-06
(PID.TID 0000.0001) %MON surfExpan_salt_mean          =   1.0095268828650E-07
(PID.TID 0000.0001) // =======================================================
(PID.TID 0000.0001) // End MONITOR dynamic field statistics
(PID.TID 0000.0001) // =======================================================
time,SST,SSS,fu,fv,Q,E-P,i0,i1,a,b =   3.4992E+06 -3.0831E-01  3.4465E+01 -1.7614E-02 -2.3579E-02  2.4427E+02  0.0000E+00     1     2  8.5000E-01  1.5000E-01
time,fu0,fu1,fu =   3.4992E+06 -3.5633E-02 -1.4435E-02 -1.7614E-02  8.500000000000000E-01  1.500000000000000E-01
 cg2d: Sum(rhs),rhsMax =   2.52262793987157E-12  8.95108951118834E+00
(PID.TID 0000.0001)                    cg2d_init_res =    3.32495507398945E-01
(PID.TID 0000.0001)                       cg2d_iters =    24
(PID.TID 0000.0001)                         cg2d_res =    6.49720466921997E-14
(PID.TID 0000.0001) // =======================================================
(PID.TID 0000.0001) // Begin MONITOR dynamic field statistics
(PID.TID 0000.0001) // =======================================================
(PID.TID 0000.0001) %MON time_tsnumber                =                    82
(PID.TID 0000.0001) %MON time_secondsf                =   3.5424000000000E+06
(PID.TID 0000.0001) %MON dynstat_eta_max              =   9.8337420775099E-01
(PID.TID 0000.0001) %MON dynstat_eta_min              =  -1.3645088738433E+00
(PID.TID 0000.0001) %MON dynstat_eta_mean             =  -1.6176001227512E-15
(PID.TID 0000.0001) %MON dynstat_eta_sd               =   4.5599797312563E-01
(PID.TID 0000.0001) %MON dynstat_eta_del2             =   2.5932661249953E-02
(PID.TID 0000.0001) %MON dynstat_uvel_max             =   2.0154381802925E-01
(PID.TID 0000.0001) %MON dynstat_uvel_min             =  -1.3571141759610E-01
(PID.TID 0000.0001) %MON dynstat_uvel_mean            =   1.6466761207511E-03
(PID.TID 0000.0001) %MON dynstat_uvel_sd              =   1.5072959849072E-02
(PID.TID 0000.0001) %MON dynstat_uvel_del2            =   3.3726839750135E-03
(PID.TID 0000.0001) %MON dynstat_vvel_max             =   1.5235945607263E-01
(PID.TID 0000.0001) %MON dynstat_vvel_min             =  -1.1433430518467E-01
(PID.TID 0000.0001) %MON dynstat_vvel_mean            =  -8.2694766821767E-04
(PID.TID 0000.0001) %MON dynstat_vvel_sd              =   1.4291015683736E-02
(PID.TID 0000.0001) %MON dynstat_vvel_del2            =   3.3818944731926E-03
(PID.TID 0000.0001) %MON dynstat_wvel_max             =   1.7867630289291E-04
(PID.TID 0000.0001) %MON dynstat_wvel_min             =  -1.4421436712034E-04
(PID.TID 0000.0001) %MON dynstat_wvel_mean            =  -9.9804285695847E-23
(PID.TID 0000.0001) %MON dynstat_wvel_sd              =   1.8698467863732E-05
(PID.TID 0000.0001) %MON dynstat_wvel_del2            =   6.5019408514770E-06
(PID.TID 0000.0001) %MON dynstat_theta_max            =   2.9614493779202E+01
(PID.TID 0000.0001) %MON dynstat_theta_min            =  -2.0307417683907E+00
(PID.TID 0000.0001) %MON dynstat_theta_mean           =   3.5892548451406E+00
(PID.TID 0000.0001) %MON dynstat_theta_sd             =   4.3419852773605E+00
(PID.TID 0000.0001) %MON dynstat_theta_del2           =   1.3895753446021E-01
(PID.TID 0000.0001) %MON dynstat_salt_max             =   3.7389521848771E+01
(PID.TID 0000.0001) %MON dynstat_salt_min             =   2.9884076113444E+01
(PID.TID 0000.0001) %MON dynstat_salt_mean            =   3.4715962701806E+01
(PID.TID 0000.0001) %MON dynstat_salt_sd              =   2.9546634483416E-01
(PID.TID 0000.0001) %MON dynstat_salt_del2            =   2.5584657014349E-02
(PID.TID 0000.0001) %MON dynstat_sst_max              =   2.9614493779202E+01
(PID.TID 0000.0001) %MON dynstat_sst_min              =  -1.9280377187771E+00
(PID.TID 0000.0001) %MON dynstat_sst_mean             =   1.8642286114457E+01
(PID.TID 0000.0001) %MON dynstat_sst_sd               =   8.9209721129856E+00
(PID.TID 0000.0001) %MON dynstat_sst_del2             =   2.7043303756185E-01
(PID.TID 0000.0001) %MON dynstat_sss_max              =   3.7389520087482E+01
(PID.TID 0000.0001) %MON dynstat_sss_min              =   2.9884076113444E+01
(PID.TID 0000.0001) %MON dynstat_sss_mean             =   3.4841114447073E+01
(PID.TID 0000.0001) %MON dynstat_sss_sd               =   9.5831987927971E-01
(PID.TID 0000.0001) %MON dynstat_sss_del2             =   7.9654814644509E-02
(PID.TID 0000.0001) %MON extforcing_qnet_max          =   3.6454618225098E+02
(PID.TID 0000.0001) %MON extforcing_qnet_min          =  -1.7391180572510E+02
(PID.TID 0000.0001) %MON extforcing_qnet_mean         =  -1.4347342232258E+01
(PID.TID 0000.0001) %MON extforcing_qnet_sd           =   8.3784815154812E+01
(PID.TID 0000.0001) %MON extforcing_qnet_del2         =   8.6681452204081E+00
(PID.TID 0000.0001) %MON extforcing_qsw_max           =   0.0000000000000E+00
(PID.TID 0000.0001) %MON extforcing_qsw_min           =   0.0000000000000E+00
(PID.TID 0000.0001) %MON extforcing_qsw_mean          =   0.0000000000000E+00
(PID.TID 0000.0001) %MON extforcing_qsw_sd            =   0.0000000000000E+00
(PID.TID 0000.0001) %MON extforcing_qsw_del2          =   0.0000000000000E+00
(PID.TID 0000.0001) %MON extforcing_empmr_max         =   0.0000000000000E+00
(PID.TID 0000.0001) %MON extforcing_empmr_min         =   0.0000000000000E+00
(PID.TID 0000.0001) %MON extforcing_empmr_mean        =   0.0000000000000E+00
(PID.TID 0000.0001) %MON extforcing_empmr_sd          =   0.0000000000000E+00
(PID.TID 0000.0001) %MON extforcing_empmr_del2        =   0.0000000000000E+00
(PID.TID 0000.0001) %MON extforcing_fu_max            =   2.9839331358671E-01
(PID.TID 0000.0001) %MON extforcing_fu_min            =  -2.0826269388199E-01
(PID.TID 0000.0001) %MON extforcing_fu_mean           =   1.7386390647025E-02
(PID.TID 0000.0001) %MON extforcing_fu_sd             =   9.1740221020321E-02
(PID.TID 0000.0001) %MON extforcing_fu_del2           =   7.7707903256353E-03
(PID.TID 0000.0001) %MON extforcing_fv_max            =   1.9208112284541E-01
(PID.TID 0000.0001) %MON extforcing_fv_min            =  -1.8540571033955E-01
(PID.TID 0000.0001) %MON extforcing_fv_mean           =  -6.9230508607420E-03
(PID.TID 0000.0001) %MON extforcing_fv_sd             =   4.4632592508362E-02
(PID.TID 0000.0001) %MON extforcing_fv_del2           =   4.7972742830340E-03
(PID.TID 0000.0001) %MON advcfl_uvel_max              =   2.6345289724451E-02
(PID.TID 0000.0001) %MON advcfl_vvel_max              =   1.4800499381507E-02
(PID.TID 0000.0001) %MON advcfl_wvel_max              =   6.8194934771310E-02
(PID.TID 0000.0001) %MON advcfl_W_hf_max              =   6.3043559305731E-02
(PID.TID 0000.0001) %MON pe_b_mean                    =   2.6607680972935E-04
(PID.TID 0000.0001) %MON ke_max                       =   2.1709610572953E-02
(PID.TID 0000.0001) %MON ke_mean                      =   1.9644583307121E-04
(PID.TID 0000.0001) %MON ke_vol                       =   1.3226782436723E+18
(PID.TID 0000.0001) %MON vort_r_min                   =  -4.7401879851648E-07
(PID.TID 0000.0001) %MON vort_r_max                   =   4.2954157607154E-07
(PID.TID 0000.0001) %MON vort_a_mean                  =  -2.5205769088986E-05
(PID.TID 0000.0001) %MON vort_a_sd                    =   7.3403647012841E-05
(PID.TID 0000.0001) %MON vort_p_mean                  =  -3.1758669173865E-05
(PID.TID 0000.0001) %MON vort_p_sd                    =   1.3126461475936E-04
(PID.TID 0000.0001) %MON surfExpan_theta_mean         =   7.0943931008466E-06
(PID.TID 0000.0001) %MON surfExpan_salt_mean          =   5.8048368379138E-08
(PID.TID 0000.0001) // =======================================================
(PID.TID 0000.0001) // End MONITOR dynamic field statistics
(PID.TID 0000.0001) // =======================================================
time,SST,SSS,fu,fv,Q,E-P,i0,i1,a,b =   3.5424E+06 -3.3315E-01  3.4460E+01 -1.7261E-02 -2.2918E-02  2.4385E+02  0.0000E+00     1     2  8.6667E-01  1.3333E-01
time,fu0,fu1,fu =   3.5424E+06 -3.5633E-02 -1.4435E-02 -1.7261E-02  8.666666666666667E-01  1.333333333333333E-01
 cg2d: Sum(rhs),rhsMax =   2.94524127308904E-12  8.57195976548044E+00
(PID.TID 0000.0001)                    cg2d_init_res =    3.46605075257484E-01
(PID.TID 0000.0001)                       cg2d_iters =    24
(PID.TID 0000.0001)                         cg2d_res =    6.74923946384764E-14
(PID.TID 0000.0001) // =======================================================
(PID.TID 0000.0001) // Begin MONITOR dynamic field statistics
(PID.TID 0000.0001) // =======================================================
(PID.TID 0000.0001) %MON time_tsnumber                =                    83
(PID.TID 0000.0001) %MON time_secondsf                =   3.5856000000000E+06
(PID.TID 0000.0001) %MON dynstat_eta_max              =   9.4152339990844E-01
(PID.TID 0000.0001) %MON dynstat_eta_min              =  -1.3587181907413E+00
(PID.TID 0000.0001) %MON dynstat_eta_mean             =  -1.7465329567423E-15
(PID.TID 0000.0001) %MON dynstat_eta_sd               =   4.5688082468899E-01
(PID.TID 0000.0001) %MON dynstat_eta_del2             =   2.5941836241472E-02
(PID.TID 0000.0001) %MON dynstat_uvel_max             =   1.9606330301284E-01
(PID.TID 0000.0001) %MON dynstat_uvel_min             =  -1.3359914218736E-01
(PID.TID 0000.0001) %MON dynstat_uvel_mean            =   1.6730109255463E-03
(PID.TID 0000.0001) %MON dynstat_uvel_sd              =   1.4819376407898E-02
(PID.TID 0000.0001) %MON dynstat_uvel_del2            =   3.3671992652933E-03
(PID.TID 0000.0001) %MON dynstat_vvel_max             =   1.5347577618591E-01
(PID.TID 0000.0001) %MON dynstat_vvel_min             =  -1.1334380721053E-01
(PID.TID 0000.0001) %MON dynstat_vvel_mean            =  -7.6482326166616E-04
(PID.TID 0000.0001) %MON dynstat_vvel_sd              =   1.4256286861844E-02
(PID.TID 0000.0001) %MON dynstat_vvel_del2            =   3.3753591047195E-03
(PID.TID 0000.0001) %MON dynstat_wvel_max             =   1.7648874893168E-04
(PID.TID 0000.0001) %MON dynstat_wvel_min             =  -1.5522051842403E-04
(PID.TID 0000.0001) %MON dynstat_wvel_mean            =   2.7266267077492E-22
(PID.TID 0000.0001) %MON dynstat_wvel_sd              =   1.8565471323126E-05
(PID.TID 0000.0001) %MON dynstat_wvel_del2            =   6.5106148197362E-06
(PID.TID 0000.0001) %MON dynstat_theta_max            =   2.9627505639554E+01
(PID.TID 0000.0001) %MON dynstat_theta_min            =  -2.0302492943163E+00
(PID.TID 0000.0001) %MON dynstat_theta_mean           =   3.5892071689009E+00
(PID.TID 0000.0001) %MON dynstat_theta_sd             =   4.3420118821757E+00
(PID.TID 0000.0001) %MON dynstat_theta_del2           =   1.3908439910172E-01
(PID.TID 0000.0001) %MON dynstat_salt_max             =   3.7389497040438E+01
(PID.TID 0000.0001) %MON dynstat_salt_min             =   2.9884567406066E+01
(PID.TID 0000.0001) %MON dynstat_salt_mean            =   3.4715962660563E+01
(PID.TID 0000.0001) %MON dynstat_salt_sd              =   2.9545602664730E-01
(PID.TID 0000.0001) %MON dynstat_salt_del2            =   2.5576006273815E-02
(PID.TID 0000.0001) %MON dynstat_sst_max              =   2.9627505639554E+01
(PID.TID 0000.0001) %MON dynstat_sst_min              =  -1.9281740387486E+00
(PID.TID 0000.0001) %MON dynstat_sst_mean             =   1.8642541388749E+01
(PID.TID 0000.0001) %MON dynstat_sst_sd               =   8.9235443391566E+00
(PID.TID 0000.0001) %MON dynstat_sst_del2             =   2.7032942729431E-01
(PID.TID 0000.0001) %MON dynstat_sss_max              =   3.7389495320070E+01
(PID.TID 0000.0001) %MON dynstat_sss_min              =   2.9884567406066E+01
(PID.TID 0000.0001) %MON dynstat_sss_mean             =   3.4840758542862E+01
(PID.TID 0000.0001) %MON dynstat_sss_sd               =   9.5810728391401E-01
(PID.TID 0000.0001) %MON dynstat_sss_del2             =   7.9590449498948E-02
(PID.TID 0000.0001) %MON extforcing_qnet_max          =   3.6386907755534E+02
(PID.TID 0000.0001) %MON extforcing_qnet_min          =  -1.7379204610189E+02
(PID.TID 0000.0001) %MON extforcing_qnet_mean         =  -1.4304887648557E+01
(PID.TID 0000.0001) %MON extforcing_qnet_sd           =   8.3311816502922E+01
(PID.TID 0000.0001) %MON extforcing_qnet_del2         =   8.6561731584245E+00
(PID.TID 0000.0001) %MON extforcing_qsw_max           =   0.0000000000000E+00
(PID.TID 0000.0001) %MON extforcing_qsw_min           =   0.0000000000000E+00
(PID.TID 0000.0001) %MON extforcing_qsw_mean          =   0.0000000000000E+00
(PID.TID 0000.0001) %MON extforcing_qsw_sd            =   0.0000000000000E+00
(PID.TID 0000.0001) %MON extforcing_qsw_del2          =   0.0000000000000E+00
(PID.TID 0000.0001) %MON extforcing_empmr_max         =   0.0000000000000E+00
(PID.TID 0000.0001) %MON extforcing_empmr_min         =   0.0000000000000E+00
(PID.TID 0000.0001) %MON extforcing_empmr_mean        =   0.0000000000000E+00
(PID.TID 0000.0001) %MON extforcing_empmr_sd          =   0.0000000000000E+00
(PID.TID 0000.0001) %MON extforcing_empmr_del2        =   0.0000000000000E+00
(PID.TID 0000.0001) %MON extforcing_fu_max            =   2.9908689260483E-01
(PID.TID 0000.0001) %MON extforcing_fu_min            =  -2.0909265577793E-01
(PID.TID 0000.0001) %MON extforcing_fu_mean           =   1.7413540754760E-02
(PID.TID 0000.0001) %MON extforcing_fu_sd             =   9.1865449563120E-02
(PID.TID 0000.0001) %MON extforcing_fu_del2           =   7.8044815856501E-03
(PID.TID 0000.0001) %MON extforcing_fv_max            =   1.9313710530599E-01
(PID.TID 0000.0001) %MON extforcing_fv_min            =  -1.8699165980021E-01
(PID.TID 0000.0001) %MON extforcing_fv_mean           =  -6.9556813140996E-03
(PID.TID 0000.0001) %MON extforcing_fv_sd             =   4.4663298961799E-02
(PID.TID 0000.0001) %MON extforcing_fv_del2           =   4.8312060800883E-03
(PID.TID 0000.0001) %MON advcfl_uvel_max              =   2.5628890891887E-02
(PID.TID 0000.0001) %MON advcfl_vvel_max              =   1.4908940928702E-02
(PID.TID 0000.0001) %MON advcfl_wvel_max              =   6.4285356996920E-02
(PID.TID 0000.0001) %MON advcfl_W_hf_max              =   6.1680148070442E-02
(PID.TID 0000.0001) %MON pe_b_mean                    =   2.6710810258939E-04
(PID.TID 0000.0001) %MON ke_max                       =   2.0978026916714E-02
(PID.TID 0000.0001) %MON ke_mean                      =   1.9255226619470E-04
(PID.TID 0000.0001) %MON ke_vol                       =   1.3226782436723E+18
(PID.TID 0000.0001) %MON vort_r_min                   =  -4.6515522418193E-07
(PID.TID 0000.0001) %MON vort_r_max                   =   4.3068849987678E-07
(PID.TID 0000.0001) %MON vort_a_mean                  =  -2.5205769096184E-05
(PID.TID 0000.0001) %MON vort_a_sd                    =   7.3403651451552E-05
(PID.TID 0000.0001) %MON vort_p_mean                  =  -3.1758669182936E-05
(PID.TID 0000.0001) %MON vort_p_sd                    =   1.3126457308127E-04
(PID.TID 0000.0001) %MON surfExpan_theta_mean         =   7.9400914479666E-06
(PID.TID 0000.0001) %MON surfExpan_salt_mean          =   2.4769531348100E-08
(PID.TID 0000.0001) // =======================================================
(PID.TID 0000.0001) // End MONITOR dynamic field statistics
(PID.TID 0000.0001) // =======================================================
time,SST,SSS,fu,fv,Q,E-P,i0,i1,a,b =   3.5856E+06 -3.5799E-01  3.4455E+01 -1.6908E-02 -2.2258E-02  2.4343E+02  0.0000E+00     1     2  8.8333E-01  1.1667E-01
time,fu0,fu1,fu =   3.5856E+06 -3.5633E-02 -1.4435E-02 -1.6908E-02  8.833333333333333E-01  1.166666666666667E-01
 cg2d: Sum(rhs),rhsMax =   2.92452173589197E-12  8.11762756642777E+00
(PID.TID 0000.0001)                    cg2d_init_res =    3.69574544069154E-01
(PID.TID 0000.0001)                       cg2d_iters =    24
(PID.TID 0000.0001)                         cg2d_res =    7.16366968146003E-14
(PID.TID 0000.0001) // =======================================================
(PID.TID 0000.0001) // Begin MONITOR dynamic field statistics
(PID.TID 0000.0001) // =======================================================
(PID.TID 0000.0001) %MON time_tsnumber                =                    84
(PID.TID 0000.0001) %MON time_secondsf                =   3.6288000000000E+06
(PID.TID 0000.0001) %MON dynstat_eta_max              =   8.9144302408758E-01
(PID.TID 0000.0001) %MON dynstat_eta_min              =  -1.3778741642980E+00
(PID.TID 0000.0001) %MON dynstat_eta_mean             =  -2.0004364677233E-15
(PID.TID 0000.0001) %MON dynstat_eta_sd               =   4.5783936207334E-01
(PID.TID 0000.0001) %MON dynstat_eta_del2             =   2.5921757818958E-02
(PID.TID 0000.0001) %MON dynstat_uvel_max             =   1.8942491651054E-01
(PID.TID 0000.0001) %MON dynstat_uvel_min             =  -1.3156586250316E-01
(PID.TID 0000.0001) %MON dynstat_uvel_mean            =   1.6870727866601E-03
(PID.TID 0000.0001) %MON dynstat_uvel_sd              =   1.4577939990468E-02
(PID.TID 0000.0001) %MON dynstat_uvel_del2            =   3.3642601665944E-03
(PID.TID 0000.0001) %MON dynstat_vvel_max             =   1.5480208251934E-01
(PID.TID 0000.0001) %MON dynstat_vvel_min             =  -1.1225946793507E-01
(PID.TID 0000.0001) %MON dynstat_vvel_mean            =  -7.0593079697828E-04
(PID.TID 0000.0001) %MON dynstat_vvel_sd              =   1.4225540896203E-02
(PID.TID 0000.0001) %MON dynstat_vvel_del2            =   3.3712034302022E-03
(PID.TID 0000.0001) %MON dynstat_wvel_max             =   1.7530304736330E-04
(PID.TID 0000.0001) %MON dynstat_wvel_min             =  -1.6480565441663E-04
(PID.TID 0000.0001) %MON dynstat_wvel_mean            =  -8.9131448766723E-23
(PID.TID 0000.0001) %MON dynstat_wvel_sd              =   1.8484669799883E-05
(PID.TID 0000.0001) %MON dynstat_wvel_del2            =   6.5272845385922E-06
(PID.TID 0000.0001) %MON dynstat_theta_max            =   2.9639646001283E+01
(PID.TID 0000.0001) %MON dynstat_theta_min            =  -2.0296512092178E+00
(PID.TID 0000.0001) %MON dynstat_theta_mean           =   3.5891499388256E+00
(PID.TID 0000.0001) %MON dynstat_theta_sd             =   4.3420063367509E+00
(PID.TID 0000.0001) %MON dynstat_theta_del2           =   1.3919097411011E-01
(PID.TID 0000.0001) %MON dynstat_salt_max             =   3.7389433383226E+01
(PID.TID 0000.0001) %MON dynstat_salt_min             =   2.9884988142603E+01
(PID.TID 0000.0001) %MON dynstat_salt_mean            =   3.4715962942381E+01
(PID.TID 0000.0001) %MON dynstat_salt_sd              =   2.9544794282252E-01
(PID.TID 0000.0001) %MON dynstat_salt_del2            =   2.5566480843114E-02
(PID.TID 0000.0001) %MON dynstat_sst_max              =   2.9639646001283E+01
(PID.TID 0000.0001) %MON dynstat_sst_min              =  -1.9284727841147E+00
(PID.TID 0000.0001) %MON dynstat_sst_mean             =   1.8642822398486E+01
(PID.TID 0000.0001) %MON dynstat_sst_sd               =   8.9258965614888E+00
(PID.TID 0000.0001) %MON dynstat_sst_del2             =   2.7018482868756E-01
(PID.TID 0000.0001) %MON dynstat_sss_max              =   3.7389431711089E+01
(PID.TID 0000.0001) %MON dynstat_sss_min              =   2.9884988142603E+01
(PID.TID 0000.0001) %MON dynstat_sss_mean             =   3.4840421368372E+01
(PID.TID 0000.0001) %MON dynstat_sss_sd               =   9.5788930467321E-01
(PID.TID 0000.0001) %MON dynstat_sss_del2             =   7.9522378033707E-02
(PID.TID 0000.0001) %MON extforcing_qnet_max          =   3.6319197285970E+02
(PID.TID 0000.0001) %MON extforcing_qnet_min          =  -1.7367228647868E+02
(PID.TID 0000.0001) %MON extforcing_qnet_mean         =  -1.4262433064855E+01
(PID.TID 0000.0001) %MON extforcing_qnet_sd           =   8.2840765898159E+01
(PID.TID 0000.0001) %MON extforcing_qnet_del2         =   8.6447886687078E+00
(PID.TID 0000.0001) %MON extforcing_qsw_max           =   0.0000000000000E+00
(PID.TID 0000.0001) %MON extforcing_qsw_min           =   0.0000000000000E+00
(PID.TID 0000.0001) %MON extforcing_qsw_mean          =   0.0000000000000E+00
(PID.TID 0000.0001) %MON extforcing_qsw_sd            =   0.0000000000000E+00
(PID.TID 0000.0001) %MON extforcing_qsw_del2          =   0.0000000000000E+00
(PID.TID 0000.0001) %MON extforcing_empmr_max         =   0.0000000000000E+00
(PID.TID 0000.0001) %MON extforcing_empmr_min         =   0.0000000000000E+00
(PID.TID 0000.0001) %MON extforcing_empmr_mean        =   0.0000000000000E+00
(PID.TID 0000.0001) %MON extforcing_empmr_sd          =   0.0000000000000E+00
(PID.TID 0000.0001) %MON extforcing_empmr_del2        =   0.0000000000000E+00
(PID.TID 0000.0001) %MON extforcing_fu_max            =   2.9978047162294E-01
(PID.TID 0000.0001) %MON extforcing_fu_min            =  -2.0992261767387E-01
(PID.TID 0000.0001) %MON extforcing_fu_mean           =   1.7440690862494E-02
(PID.TID 0000.0001) %MON extforcing_fu_sd             =   9.1994806245679E-02
(PID.TID 0000.0001) %MON extforcing_fu_del2           =   7.8393440213817E-03
(PID.TID 0000.0001) %MON extforcing_fv_max            =   1.9419308776657E-01
(PID.TID 0000.0001) %MON extforcing_fv_min            =  -1.8857760926088E-01
(PID.TID 0000.0001) %MON extforcing_fv_mean           =  -6.9883117674572E-03
(PID.TID 0000.0001) %MON extforcing_fv_sd             =   4.4697997518101E-02
(PID.TID 0000.0001) %MON extforcing_fv_del2           =   4.8658253692888E-03
(PID.TID 0000.0001) %MON advcfl_uvel_max              =   2.4761138075572E-02
(PID.TID 0000.0001) %MON advcfl_vvel_max              =   1.5037780953296E-02
(PID.TID 0000.0001) %MON advcfl_wvel_max              =   7.5766791201557E-02
(PID.TID 0000.0001) %MON advcfl_W_hf_max              =   7.2846669839779E-02
(PID.TID 0000.0001) %MON pe_b_mean                    =   2.6823006554894E-04
(PID.TID 0000.0001) %MON ke_max                       =   2.0071329321725E-02
(PID.TID 0000.0001) %MON ke_mean                      =   1.8891716633062E-04
(PID.TID 0000.0001) %MON ke_vol                       =   1.3226782436723E+18
(PID.TID 0000.0001) %MON vort_r_min                   =  -4.5480998342920E-07
(PID.TID 0000.0001) %MON vort_r_max                   =   4.2960373539462E-07
(PID.TID 0000.0001) %MON vort_a_mean                  =  -2.5205769101727E-05
(PID.TID 0000.0001) %MON vort_a_sd                    =   7.3403653399337E-05
(PID.TID 0000.0001) %MON vort_p_mean                  =  -3.1758669189919E-05
(PID.TID 0000.0001) %MON vort_p_sd                    =   1.3126452592939E-04
(PID.TID 0000.0001) %MON surfExpan_theta_mean         =   8.7914117505921E-06
(PID.TID 0000.0001) %MON surfExpan_salt_mean          =   2.1517094877305E-09
(PID.TID 0000.0001) // =======================================================
(PID.TID 0000.0001) // End MONITOR dynamic field statistics
(PID.TID 0000.0001) // =======================================================
time,SST,SSS,fu,fv,Q,E-P,i0,i1,a,b =   3.6288E+06 -3.8283E-01  3.4450E+01 -1.6555E-02 -2.1598E-02  2.4301E+02  0.0000E+00     1     2  9.0000E-01  1.0000E-01
time,fu0,fu1,fu =   3.6288E+06 -3.5633E-02 -1.4435E-02 -1.6555E-02  9.000000000000000E-01  9.999999999999998E-02
 cg2d: Sum(rhs),rhsMax =   3.88093723824312E-12  8.02199624565983E+00
(PID.TID 0000.0001)                    cg2d_init_res =    3.80071265101114E-01
(PID.TID 0000.0001)                       cg2d_iters =    24
(PID.TID 0000.0001)                         cg2d_res =    7.33341278956116E-14
(PID.TID 0000.0001) // =======================================================
(PID.TID 0000.0001) // Begin MONITOR dynamic field statistics
(PID.TID 0000.0001) // =======================================================
(PID.TID 0000.0001) %MON time_tsnumber                =                    85
(PID.TID 0000.0001) %MON time_secondsf                =   3.6720000000000E+06
(PID.TID 0000.0001) %MON dynstat_eta_max              =   8.3819256278436E-01
(PID.TID 0000.0001) %MON dynstat_eta_min              =  -1.3970818287154E+00
(PID.TID 0000.0001) %MON dynstat_eta_mean             =  -2.1503192068589E-15
(PID.TID 0000.0001) %MON dynstat_eta_sd               =   4.5888886131900E-01
(PID.TID 0000.0001) %MON dynstat_eta_del2             =   2.5903281982592E-02
(PID.TID 0000.0001) %MON dynstat_uvel_max             =   1.8175019843204E-01
(PID.TID 0000.0001) %MON dynstat_uvel_min             =  -1.3166358176127E-01
(PID.TID 0000.0001) %MON dynstat_uvel_mean            =   1.6893532174138E-03
(PID.TID 0000.0001) %MON dynstat_uvel_sd              =   1.4350293650927E-02
(PID.TID 0000.0001) %MON dynstat_uvel_del2            =   3.3613204296051E-03
(PID.TID 0000.0001) %MON dynstat_vvel_max             =   1.5594912871563E-01
(PID.TID 0000.0001) %MON dynstat_vvel_min             =  -1.1108897272825E-01
(PID.TID 0000.0001) %MON dynstat_vvel_mean            =  -6.4967664448160E-04
(PID.TID 0000.0001) %MON dynstat_vvel_sd              =   1.4199929603409E-02
(PID.TID 0000.0001) %MON dynstat_vvel_del2            =   3.3697801523252E-03
(PID.TID 0000.0001) %MON dynstat_wvel_max             =   1.7404647805318E-04
(PID.TID 0000.0001) %MON dynstat_wvel_min             =  -1.7285255995548E-04
(PID.TID 0000.0001) %MON dynstat_wvel_mean            =  -5.9144289212203E-22
(PID.TID 0000.0001) %MON dynstat_wvel_sd              =   1.8452094600834E-05
(PID.TID 0000.0001) %MON dynstat_wvel_del2            =   6.5426525120521E-06
(PID.TID 0000.0001) %MON dynstat_theta_max            =   2.9650813450370E+01
(PID.TID 0000.0001) %MON dynstat_theta_min            =  -2.0289477325932E+00
(PID.TID 0000.0001) %MON dynstat_theta_mean           =   3.5890832314948E+00
(PID.TID 0000.0001) %MON dynstat_theta_sd             =   4.3419677910265E+00
(PID.TID 0000.0001) %MON dynstat_theta_del2           =   1.3928852989913E-01
(PID.TID 0000.0001) %MON dynstat_salt_max             =   3.7389325339474E+01
(PID.TID 0000.0001) %MON dynstat_salt_min             =   2.9885355738286E+01
(PID.TID 0000.0001) %MON dynstat_salt_mean            =   3.4715963418749E+01
(PID.TID 0000.0001) %MON dynstat_salt_sd              =   2.9544217702217E-01
(PID.TID 0000.0001) %MON dynstat_salt_del2            =   2.5554874547489E-02
(PID.TID 0000.0001) %MON dynstat_sst_max              =   2.9650813450370E+01
(PID.TID 0000.0001) %MON dynstat_sst_min              =  -1.9289066807580E+00
(PID.TID 0000.0001) %MON dynstat_sst_mean             =   1.8643159993314E+01
(PID.TID 0000.0001) %MON dynstat_sst_sd               =   8.9280460894102E+00
(PID.TID 0000.0001) %MON dynstat_sst_del2             =   2.7003564616885E-01
(PID.TID 0000.0001) %MON dynstat_sss_max              =   3.7389323721439E+01
(PID.TID 0000.0001) %MON dynstat_sss_min              =   2.9885355738286E+01
(PID.TID 0000.0001) %MON dynstat_sss_mean             =   3.4840108741802E+01
(PID.TID 0000.0001) %MON dynstat_sss_sd               =   9.5768512474940E-01
(PID.TID 0000.0001) %MON dynstat_sss_del2             =   7.9447891451939E-02
(PID.TID 0000.0001) %MON extforcing_qnet_max          =   3.6251486816406E+02
(PID.TID 0000.0001) %MON extforcing_qnet_min          =  -1.7355252685547E+02
(PID.TID 0000.0001) %MON extforcing_qnet_mean         =  -1.4219978481153E+01
(PID.TID 0000.0001) %MON extforcing_qnet_sd           =   8.2371696760825E+01
(PID.TID 0000.0001) %MON extforcing_qnet_del2         =   8.6338162017995E+00
(PID.TID 0000.0001) %MON extforcing_qsw_max           =   0.0000000000000E+00
(PID.TID 0000.0001) %MON extforcing_qsw_min           =   0.0000000000000E+00
(PID.TID 0000.0001) %MON extforcing_qsw_mean          =   0.0000000000000E+00
(PID.TID 0000.0001) %MON extforcing_qsw_sd            =   0.0000000000000E+00
(PID.TID 0000.0001) %MON extforcing_qsw_del2          =   0.0000000000000E+00
(PID.TID 0000.0001) %MON extforcing_empmr_max         =   0.0000000000000E+00
(PID.TID 0000.0001) %MON extforcing_empmr_min         =   0.0000000000000E+00
(PID.TID 0000.0001) %MON extforcing_empmr_mean        =   0.0000000000000E+00
(PID.TID 0000.0001) %MON extforcing_empmr_sd          =   0.0000000000000E+00
(PID.TID 0000.0001) %MON extforcing_empmr_del2        =   0.0000000000000E+00
(PID.TID 0000.0001) %MON extforcing_fu_max            =   3.0047405064106E-01
(PID.TID 0000.0001) %MON extforcing_fu_min            =  -2.1116244494915E-01
(PID.TID 0000.0001) %MON extforcing_fu_mean           =   1.7467840970229E-02
(PID.TID 0000.0001) %MON extforcing_fu_sd             =   9.2128273679121E-02
(PID.TID 0000.0001) %MON extforcing_fu_del2           =   7.8754235218697E-03
(PID.TID 0000.0001) %MON extforcing_fv_max            =   1.9524907022715E-01
(PID.TID 0000.0001) %MON extforcing_fv_min            =  -1.9016355872154E-01
(PID.TID 0000.0001) %MON extforcing_fv_mean           =  -7.0209422208148E-03
(PID.TID 0000.0001) %MON extforcing_fv_sd             =   4.4736678888232E-02
(PID.TID 0000.0001) %MON extforcing_fv_del2           =   4.9012519632062E-03
(PID.TID 0000.0001) %MON advcfl_uvel_max              =   2.3757918660019E-02
(PID.TID 0000.0001) %MON advcfl_vvel_max              =   1.5149207293061E-02
(PID.TID 0000.0001) %MON advcfl_wvel_max              =   8.5983881478051E-02
(PID.TID 0000.0001) %MON advcfl_W_hf_max              =   8.2131024204536E-02
(PID.TID 0000.0001) %MON pe_b_mean                    =   2.6946119560248E-04
(PID.TID 0000.0001) %MON ke_max                       =   1.9010005518695E-02
(PID.TID 0000.0001) %MON ke_mean                      =   1.8556774182608E-04
(PID.TID 0000.0001) %MON ke_vol                       =   1.3226782436723E+18
(PID.TID 0000.0001) %MON vort_r_min                   =  -4.4311033289432E-07
(PID.TID 0000.0001) %MON vort_r_max                   =   4.2635215514649E-07
(PID.TID 0000.0001) %MON vort_a_mean                  =  -2.5205769105366E-05
(PID.TID 0000.0001) %MON vort_a_sd                    =   7.3403652887666E-05
(PID.TID 0000.0001) %MON vort_p_mean                  =  -3.1758669194505E-05
(PID.TID 0000.0001) %MON vort_p_sd                    =   1.3126447385187E-04
(PID.TID 0000.0001) %MON surfExpan_theta_mean         =   9.6283016232366E-06
(PID.TID 0000.0001) %MON surfExpan_salt_mean          =  -9.1921046934204E-09
(PID.TID 0000.0001) // =======================================================
(PID.TID 0000.0001) // End MONITOR dynamic field statistics
(PID.TID 0000.0001) // =======================================================
time,SST,SSS,fu,fv,Q,E-P,i0,i1,a,b =   3.6720E+06 -4.0767E-01  3.4446E+01 -1.6201E-02 -2.0937E-02  2.4259E+02  0.0000E+00     1     2  9.1667E-01  8.3333E-02
time,fu0,fu1,fu =   3.6720E+06 -3.5633E-02 -1.4435E-02 -1.6201E-02  9.166666666666666E-01  8.333333333333337E-02
 cg2d: Sum(rhs),rhsMax =   4.00203481465411E-12  7.98965232011825E+00
(PID.TID 0000.0001)                    cg2d_init_res =    3.88422778808394E-01
(PID.TID 0000.0001)                       cg2d_iters =    24
(PID.TID 0000.0001)                         cg2d_res =    7.40579801034221E-14
(PID.TID 0000.0001) // =======================================================
(PID.TID 0000.0001) // Begin MONITOR dynamic field statistics
(PID.TID 0000.0001) // =======================================================
(PID.TID 0000.0001) %MON time_tsnumber                =                    86
(PID.TID 0000.0001) %MON time_secondsf                =   3.7152000000000E+06
(PID.TID 0000.0001) %MON dynstat_eta_max              =   8.2210965125502E-01
(PID.TID 0000.0001) %MON dynstat_eta_min              =  -1.4158896738245E+00
(PID.TID 0000.0001) %MON dynstat_eta_mean             =  -2.1167753026745E-15
(PID.TID 0000.0001) %MON dynstat_eta_sd               =   4.6004383010776E-01
(PID.TID 0000.0001) %MON dynstat_eta_del2             =   2.5865616945224E-02
(PID.TID 0000.0001) %MON dynstat_uvel_max             =   1.7317697839424E-01
(PID.TID 0000.0001) %MON dynstat_uvel_min             =  -1.3170476448439E-01
(PID.TID 0000.0001) %MON dynstat_uvel_mean            =   1.6805784616811E-03
(PID.TID 0000.0001) %MON dynstat_uvel_sd              =   1.4137929783179E-02
(PID.TID 0000.0001) %MON dynstat_uvel_del2            =   3.3575041891586E-03
(PID.TID 0000.0001) %MON dynstat_vvel_max             =   1.5688626712716E-01
(PID.TID 0000.0001) %MON dynstat_vvel_min             =  -1.0983922660520E-01
(PID.TID 0000.0001) %MON dynstat_vvel_mean            =  -5.9532718424965E-04
(PID.TID 0000.0001) %MON dynstat_vvel_sd              =   1.4180132745409E-02
(PID.TID 0000.0001) %MON dynstat_vvel_del2            =   3.3697747081148E-03
(PID.TID 0000.0001) %MON dynstat_wvel_max             =   1.7271287970857E-04
(PID.TID 0000.0001) %MON dynstat_wvel_min             =  -1.7927724056302E-04
(PID.TID 0000.0001) %MON dynstat_wvel_mean            =  -3.0655197433496E-22
(PID.TID 0000.0001) %MON dynstat_wvel_sd              =   1.8460877444966E-05
(PID.TID 0000.0001) %MON dynstat_wvel_del2            =   6.5496318380948E-06
(PID.TID 0000.0001) %MON dynstat_theta_max            =   2.9660935589630E+01
(PID.TID 0000.0001) %MON dynstat_theta_min            =  -2.0281411585911E+00
(PID.TID 0000.0001) %MON dynstat_theta_mean           =   3.5890073383082E+00
(PID.TID 0000.0001) %MON dynstat_theta_sd             =   4.3418949816126E+00
(PID.TID 0000.0001) %MON dynstat_theta_del2           =   1.3942364404154E-01
(PID.TID 0000.0001) %MON dynstat_salt_max             =   3.7389169085193E+01
(PID.TID 0000.0001) %MON dynstat_salt_min             =   2.9885687035702E+01
(PID.TID 0000.0001) %MON dynstat_salt_mean            =   3.4715963957447E+01
(PID.TID 0000.0001) %MON dynstat_salt_sd              =   2.9543844492958E-01
(PID.TID 0000.0001) %MON dynstat_salt_del2            =   2.5549975893868E-02
(PID.TID 0000.0001) %MON dynstat_sst_max              =   2.9660935589630E+01
(PID.TID 0000.0001) %MON dynstat_sst_min              =  -1.9294405596686E+00
(PID.TID 0000.0001) %MON dynstat_sst_mean             =   1.8643807678224E+01
(PID.TID 0000.0001) %MON dynstat_sst_sd               =   8.9295088383762E+00
(PID.TID 0000.0001) %MON dynstat_sst_del2             =   2.6998875438595E-01
(PID.TID 0000.0001) %MON dynstat_sss_max              =   3.7389167525658E+01
(PID.TID 0000.0001) %MON dynstat_sss_min              =   2.9885687035702E+01
(PID.TID 0000.0001) %MON dynstat_sss_mean             =   3.4839842013862E+01
(PID.TID 0000.0001) %MON dynstat_sss_sd               =   9.5744717956529E-01
(PID.TID 0000.0001) %MON dynstat_sss_del2             =   7.9398053159082E-02
(PID.TID 0000.0001) %MON extforcing_qnet_max          =   3.6183776346842E+02
(PID.TID 0000.0001) %MON extforcing_qnet_min          =  -1.7343276723226E+02
(PID.TID 0000.0001) %MON extforcing_qnet_mean         =  -1.4177523897452E+01
(PID.TID 0000.0001) %MON extforcing_qnet_sd           =   8.1904643134608E+01
(PID.TID 0000.0001) %MON extforcing_qnet_del2         =   8.6232840228271E+00
(PID.TID 0000.0001) %MON extforcing_qsw_max           =   0.0000000000000E+00
(PID.TID 0000.0001) %MON extforcing_qsw_min           =   0.0000000000000E+00
(PID.TID 0000.0001) %MON extforcing_qsw_mean          =   0.0000000000000E+00
(PID.TID 0000.0001) %MON extforcing_qsw_sd            =   0.0000000000000E+00
(PID.TID 0000.0001) %MON extforcing_qsw_del2          =   0.0000000000000E+00
(PID.TID 0000.0001) %MON extforcing_empmr_max         =   0.0000000000000E+00
(PID.TID 0000.0001) %MON extforcing_empmr_min         =   0.0000000000000E+00
(PID.TID 0000.0001) %MON extforcing_empmr_mean        =   0.0000000000000E+00
(PID.TID 0000.0001) %MON extforcing_empmr_sd          =   0.0000000000000E+00
(PID.TID 0000.0001) %MON extforcing_empmr_del2        =   0.0000000000000E+00
(PID.TID 0000.0001) %MON extforcing_fu_max            =   3.0116762965918E-01
(PID.TID 0000.0001) %MON extforcing_fu_min            =  -2.1257831404607E-01
(PID.TID 0000.0001) %MON extforcing_fu_mean           =   1.7494991077963E-02
(PID.TID 0000.0001) %MON extforcing_fu_sd             =   9.2265834024189E-02
(PID.TID 0000.0001) %MON extforcing_fu_del2           =   7.9124343581133E-03
(PID.TID 0000.0001) %MON extforcing_fv_max            =   1.9630505268772E-01
(PID.TID 0000.0001) %MON extforcing_fv_min            =  -1.9174950818221E-01
(PID.TID 0000.0001) %MON extforcing_fv_mean           =  -7.0535726741724E-03
(PID.TID 0000.0001) %MON extforcing_fv_sd             =   4.4779332750867E-02
(PID.TID 0000.0001) %MON extforcing_fv_del2           =   4.9376675394052E-03
(PID.TID 0000.0001) %MON advcfl_uvel_max              =   2.2637249378392E-02
(PID.TID 0000.0001) %MON advcfl_vvel_max              =   1.5240242774794E-02
(PID.TID 0000.0001) %MON advcfl_wvel_max              =   9.4075319549078E-02
(PID.TID 0000.0001) %MON advcfl_W_hf_max              =   8.9548853313510E-02
(PID.TID 0000.0001) %MON pe_b_mean                    =   2.7081930623863E-04
(PID.TID 0000.0001) %MON ke_max                       =   1.7817841965034E-02
(PID.TID 0000.0001) %MON ke_mean                      =   1.8252314965299E-04
(PID.TID 0000.0001) %MON ke_vol                       =   1.3226782436723E+18
(PID.TID 0000.0001) %MON vort_r_min                   =  -4.4574577280983E-07
(PID.TID 0000.0001) %MON vort_r_max                   =   4.2107110497011E-07
(PID.TID 0000.0001) %MON vort_a_mean                  =  -2.5205769106977E-05
(PID.TID 0000.0001) %MON vort_a_sd                    =   7.3403649994712E-05
(PID.TID 0000.0001) %MON vort_p_mean                  =  -3.1758669196534E-05
(PID.TID 0000.0001) %MON vort_p_sd                    =   1.3126441761645E-04
(PID.TID 0000.0001) %MON surfExpan_theta_mean         =   1.0431645798091E-05
(PID.TID 0000.0001) %MON surfExpan_salt_mean          =  -9.3440987133483E-09
(PID.TID 0000.0001) // =======================================================
(PID.TID 0000.0001) // End MONITOR dynamic field statistics
(PID.TID 0000.0001) // =======================================================
time,SST,SSS,fu,fv,Q,E-P,i0,i1,a,b =   3.7152E+06 -4.3250E-01  3.4441E+01 -1.5848E-02 -2.0277E-02  2.4217E+02  0.0000E+00     1     2  9.3333E-01  6.6667E-02
time,fu0,fu1,fu =   3.7152E+06 -3.5633E-02 -1.4435E-02 -1.5848E-02  9.333333333333333E-01  6.666666666666665E-02
 cg2d: Sum(rhs),rhsMax =   4.30591673428182E-12  7.95826435472266E+00
(PID.TID 0000.0001)                    cg2d_init_res =    3.95970753521542E-01
(PID.TID 0000.0001)                       cg2d_iters =    24
(PID.TID 0000.0001)                         cg2d_res =    7.29047001551829E-14
(PID.TID 0000.0001) // =======================================================
(PID.TID 0000.0001) // Begin MONITOR dynamic field statistics
(PID.TID 0000.0001) // =======================================================
(PID.TID 0000.0001) %MON time_tsnumber                =                    87
(PID.TID 0000.0001) %MON time_secondsf                =   3.7584000000000E+06
(PID.TID 0000.0001) %MON dynstat_eta_max              =   8.1918989195692E-01
(PID.TID 0000.0001) %MON dynstat_eta_min              =  -1.4338196581476E+00
(PID.TID 0000.0001) %MON dynstat_eta_mean             =  -2.2380880597185E-15
(PID.TID 0000.0001) %MON dynstat_eta_sd               =   4.6131594831670E-01
(PID.TID 0000.0001) %MON dynstat_eta_del2             =   2.5829130394397E-02
(PID.TID 0000.0001) %MON dynstat_uvel_max             =   1.6385696043871E-01
(PID.TID 0000.0001) %MON dynstat_uvel_min             =  -1.3169775984711E-01
(PID.TID 0000.0001) %MON dynstat_uvel_mean            =   1.6616955997181E-03
(PID.TID 0000.0001) %MON dynstat_uvel_sd              =   1.3942405310030E-02
(PID.TID 0000.0001) %MON dynstat_uvel_del2            =   3.3531954910465E-03
(PID.TID 0000.0001) %MON dynstat_vvel_max             =   1.5761124716456E-01
(PID.TID 0000.0001) %MON dynstat_vvel_min             =  -1.1000362830320E-01
(PID.TID 0000.0001) %MON dynstat_vvel_mean            =  -5.4205017540022E-04
(PID.TID 0000.0001) %MON dynstat_vvel_sd              =   1.4166337181002E-02
(PID.TID 0000.0001) %MON dynstat_vvel_del2            =   3.3720078626056E-03
(PID.TID 0000.0001) %MON dynstat_wvel_max             =   1.7142002758131E-04
(PID.TID 0000.0001) %MON dynstat_wvel_min             =  -1.8402886792551E-04
(PID.TID 0000.0001) %MON dynstat_wvel_mean            =  -6.8581399420990E-23
(PID.TID 0000.0001) %MON dynstat_wvel_sd              =   1.8502327325443E-05
(PID.TID 0000.0001) %MON dynstat_wvel_del2            =   6.5534305449343E-06
(PID.TID 0000.0001) %MON dynstat_theta_max            =   2.9669969563670E+01
(PID.TID 0000.0001) %MON dynstat_theta_min            =  -2.0272358793333E+00
(PID.TID 0000.0001) %MON dynstat_theta_mean           =   3.5889227171601E+00
(PID.TID 0000.0001) %MON dynstat_theta_sd             =   4.3417902907178E+00
(PID.TID 0000.0001) %MON dynstat_theta_del2           =   1.3950781505297E-01
(PID.TID 0000.0001) %MON dynstat_salt_max             =   3.7388962458756E+01
(PID.TID 0000.0001) %MON dynstat_salt_min             =   2.9885997236518E+01
(PID.TID 0000.0001) %MON dynstat_salt_mean            =   3.4715964430772E+01
(PID.TID 0000.0001) %MON dynstat_salt_sd              =   2.9543699524199E-01
(PID.TID 0000.0001) %MON dynstat_salt_del2            =   2.5535212320180E-02
(PID.TID 0000.0001) %MON dynstat_sst_max              =   2.9669969563670E+01
(PID.TID 0000.0001) %MON dynstat_sst_min              =  -1.9300332729321E+00
(PID.TID 0000.0001) %MON dynstat_sst_mean             =   1.8644233453021E+01
(PID.TID 0000.0001) %MON dynstat_sst_sd               =   8.9312537545197E+00
(PID.TID 0000.0001) %MON dynstat_sst_del2             =   2.6977304584481E-01
(PID.TID 0000.0001) %MON dynstat_sss_max              =   3.7388960960653E+01
(PID.TID 0000.0001) %MON dynstat_sss_min              =   2.9885997236518E+01
(PID.TID 0000.0001) %MON dynstat_sss_mean             =   3.4839548417016E+01
(PID.TID 0000.0001) %MON dynstat_sss_sd               =   9.5726185606561E-01
(PID.TID 0000.0001) %MON dynstat_sss_del2             =   7.9309006329294E-02
(PID.TID 0000.0001) %MON extforcing_qnet_max          =   3.6116065877279E+02
(PID.TID 0000.0001) %MON extforcing_qnet_min          =  -1.7331300760905E+02
(PID.TID 0000.0001) %MON extforcing_qnet_mean         =  -1.4135069313750E+01
(PID.TID 0000.0001) %MON extforcing_qnet_sd           =   8.1439639696185E+01
(PID.TID 0000.0001) %MON extforcing_qnet_del2         =   8.6132684050068E+00
(PID.TID 0000.0001) %MON extforcing_qsw_max           =   0.0000000000000E+00
(PID.TID 0000.0001) %MON extforcing_qsw_min           =   0.0000000000000E+00
(PID.TID 0000.0001) %MON extforcing_qsw_mean          =   0.0000000000000E+00
(PID.TID 0000.0001) %MON extforcing_qsw_sd            =   0.0000000000000E+00
(PID.TID 0000.0001) %MON extforcing_qsw_del2          =   0.0000000000000E+00
(PID.TID 0000.0001) %MON extforcing_empmr_max         =   0.0000000000000E+00
(PID.TID 0000.0001) %MON extforcing_empmr_min         =   0.0000000000000E+00
(PID.TID 0000.0001) %MON extforcing_empmr_mean        =   0.0000000000000E+00
(PID.TID 0000.0001) %MON extforcing_empmr_sd          =   0.0000000000000E+00
(PID.TID 0000.0001) %MON extforcing_empmr_del2        =   0.0000000000000E+00
(PID.TID 0000.0001) %MON extforcing_fu_max            =   3.0186120867729E-01
(PID.TID 0000.0001) %MON extforcing_fu_min            =  -2.1399418314298E-01
(PID.TID 0000.0001) %MON extforcing_fu_mean           =   1.7522141185698E-02
(PID.TID 0000.0001) %MON extforcing_fu_sd             =   9.2407469002415E-02
(PID.TID 0000.0001) %MON extforcing_fu_del2           =   7.9515375539396E-03
(PID.TID 0000.0001) %MON extforcing_fv_max            =   1.9736103514830E-01
(PID.TID 0000.0001) %MON extforcing_fv_min            =  -1.9333545764287E-01
(PID.TID 0000.0001) %MON extforcing_fv_mean           =  -7.0862031275300E-03
(PID.TID 0000.0001) %MON extforcing_fv_sd             =   4.4825947766004E-02
(PID.TID 0000.0001) %MON extforcing_fv_del2           =   4.9749988873977E-03
(PID.TID 0000.0001) %MON advcfl_uvel_max              =   2.1418960592972E-02
(PID.TID 0000.0001) %MON advcfl_vvel_max              =   1.5310668771787E-02
(PID.TID 0000.0001) %MON advcfl_wvel_max              =   9.9921278722041E-02
(PID.TID 0000.0001) %MON advcfl_W_hf_max              =   9.5169383002401E-02
(PID.TID 0000.0001) %MON pe_b_mean                    =   2.7231912201873E-04
(PID.TID 0000.0001) %MON ke_max                       =   1.6521033059750E-02
(PID.TID 0000.0001) %MON ke_mean                      =   1.7979734235017E-04
(PID.TID 0000.0001) %MON ke_vol                       =   1.3226782436723E+18
(PID.TID 0000.0001) %MON vort_r_min                   =  -4.5080182024269E-07
(PID.TID 0000.0001) %MON vort_r_max                   =   4.1396773311192E-07
(PID.TID 0000.0001) %MON vort_a_mean                  =  -2.5205769106560E-05
(PID.TID 0000.0001) %MON vort_a_sd                    =   7.3403644845357E-05
(PID.TID 0000.0001) %MON vort_p_mean                  =  -3.1758669196008E-05
(PID.TID 0000.0001) %MON vort_p_sd                    =   1.3126435817714E-04
(PID.TID 0000.0001) %MON surfExpan_theta_mean         =   1.1187611815684E-05
(PID.TID 0000.0001) %MON surfExpan_salt_mean          =   1.4858055857824E-09
(PID.TID 0000.0001) // =======================================================
(PID.TID 0000.0001) // End MONITOR dynamic field statistics
(PID.TID 0000.0001) // =======================================================
time,SST,SSS,fu,fv,Q,E-P,i0,i1,a,b =   3.7584E+06 -4.5734E-01  3.4436E+01 -1.5495E-02 -1.9617E-02  2.4175E+02  0.0000E+00     1     2  9.5000E-01  5.0000E-02
time,fu0,fu1,fu =   3.7584E+06 -3.5633E-02 -1.4435E-02 -1.5495E-02  9.500000000000000E-01  5.000000000000004E-02
 cg2d: Sum(rhs),rhsMax =   3.96845056815920E-12  7.92999026247246E+00
(PID.TID 0000.0001)                    cg2d_init_res =    4.01454958146852E-01
(PID.TID 0000.0001)                       cg2d_iters =    24
(PID.TID 0000.0001)                         cg2d_res =    3.20579533377241E-14
(PID.TID 0000.0001) // =======================================================
(PID.TID 0000.0001) // Begin MONITOR dynamic field statistics
(PID.TID 0000.0001) // =======================================================
(PID.TID 0000.0001) %MON time_tsnumber                =                    88
(PID.TID 0000.0001) %MON time_secondsf                =   3.8016000000000E+06
(PID.TID 0000.0001) %MON dynstat_eta_max              =   8.1670641252893E-01
(PID.TID 0000.0001) %MON dynstat_eta_min              =  -1.4540180010928E+00
(PID.TID 0000.0001) %MON dynstat_eta_mean             =  -2.4854186352455E-15
(PID.TID 0000.0001) %MON dynstat_eta_sd               =   4.6271245084740E-01
(PID.TID 0000.0001) %MON dynstat_eta_del2             =   2.5810966570140E-02
(PID.TID 0000.0001) %MON dynstat_uvel_max             =   1.5395303341176E-01
(PID.TID 0000.0001) %MON dynstat_uvel_min             =  -1.3165137752322E-01
(PID.TID 0000.0001) %MON dynstat_uvel_mean            =   1.6338504736892E-03
(PID.TID 0000.0001) %MON dynstat_uvel_sd              =   1.3765492443717E-02
(PID.TID 0000.0001) %MON dynstat_uvel_del2            =   3.3492271573556E-03
(PID.TID 0000.0001) %MON dynstat_vvel_max             =   1.5812295373286E-01
(PID.TID 0000.0001) %MON dynstat_vvel_min             =  -1.1183452659427E-01
(PID.TID 0000.0001) %MON dynstat_vvel_mean            =  -4.8896151030695E-04
(PID.TID 0000.0001) %MON dynstat_vvel_sd              =   1.4158261737960E-02
(PID.TID 0000.0001) %MON dynstat_vvel_del2            =   3.3748149913303E-03
(PID.TID 0000.0001) %MON dynstat_wvel_max             =   1.7061265402823E-04
(PID.TID 0000.0001) %MON dynstat_wvel_min             =  -1.8708964984938E-04
(PID.TID 0000.0001) %MON dynstat_wvel_mean            =  -4.7166341371021E-22
(PID.TID 0000.0001) %MON dynstat_wvel_sd              =   1.8566288416021E-05
(PID.TID 0000.0001) %MON dynstat_wvel_del2            =   6.5596399870123E-06
(PID.TID 0000.0001) %MON dynstat_theta_max            =   2.9677901738554E+01
(PID.TID 0000.0001) %MON dynstat_theta_min            =  -2.0262384554251E+00
(PID.TID 0000.0001) %MON dynstat_theta_mean           =   3.5888300546162E+00
(PID.TID 0000.0001) %MON dynstat_theta_sd             =   4.3416538555205E+00
(PID.TID 0000.0001) %MON dynstat_theta_del2           =   1.3958094552742E-01
(PID.TID 0000.0001) %MON dynstat_salt_max             =   3.7388704889056E+01
(PID.TID 0000.0001) %MON dynstat_salt_min             =   2.9886298966876E+01
(PID.TID 0000.0001) %MON dynstat_salt_mean            =   3.4715964718932E+01
(PID.TID 0000.0001) %MON dynstat_salt_sd              =   2.9543743382628E-01
(PID.TID 0000.0001) %MON dynstat_salt_del2            =   2.5519388617011E-02
(PID.TID 0000.0001) %MON dynstat_sst_max              =   2.9677901738554E+01
(PID.TID 0000.0001) %MON dynstat_sst_min              =  -1.9306402215712E+00
(PID.TID 0000.0001) %MON dynstat_sst_mean             =   1.8644853452477E+01
(PID.TID 0000.0001) %MON dynstat_sst_sd               =   8.9326577161730E+00
(PID.TID 0000.0001) %MON dynstat_sst_del2             =   2.6955119964553E-01
(PID.TID 0000.0001) %MON dynstat_sss_max              =   3.7388703453879E+01
(PID.TID 0000.0001) %MON dynstat_sss_min              =   2.9886298966876E+01
(PID.TID 0000.0001) %MON dynstat_sss_mean             =   3.4839288088050E+01
(PID.TID 0000.0001) %MON dynstat_sss_sd               =   9.5707160908213E-01
(PID.TID 0000.0001) %MON dynstat_sss_del2             =   7.9219067023869E-02
(PID.TID 0000.0001) %MON extforcing_qnet_max          =   3.6048355407715E+02
(PID.TID 0000.0001) %MON extforcing_qnet_min          =  -1.7319324798584E+02
(PID.TID 0000.0001) %MON extforcing_qnet_mean         =  -1.4092614730048E+01
(PID.TID 0000.0001) %MON extforcing_qnet_sd           =   8.0976721764764E+01
(PID.TID 0000.0001) %MON extforcing_qnet_del2         =   8.6037681855306E+00
(PID.TID 0000.0001) %MON extforcing_qsw_max           =   0.0000000000000E+00
(PID.TID 0000.0001) %MON extforcing_qsw_min           =   0.0000000000000E+00
(PID.TID 0000.0001) %MON extforcing_qsw_mean          =   0.0000000000000E+00
(PID.TID 0000.0001) %MON extforcing_qsw_sd            =   0.0000000000000E+00
(PID.TID 0000.0001) %MON extforcing_qsw_del2          =   0.0000000000000E+00
(PID.TID 0000.0001) %MON extforcing_empmr_max         =   0.0000000000000E+00
(PID.TID 0000.0001) %MON extforcing_empmr_min         =   0.0000000000000E+00
(PID.TID 0000.0001) %MON extforcing_empmr_mean        =   0.0000000000000E+00
(PID.TID 0000.0001) %MON extforcing_empmr_sd          =   0.0000000000000E+00
(PID.TID 0000.0001) %MON extforcing_empmr_del2        =   0.0000000000000E+00
(PID.TID 0000.0001) %MON extforcing_fu_max            =   3.0255478769541E-01
(PID.TID 0000.0001) %MON extforcing_fu_min            =  -2.1541005223989E-01
(PID.TID 0000.0001) %MON extforcing_fu_mean           =   1.7549291293432E-02
(PID.TID 0000.0001) %MON extforcing_fu_sd             =   9.2553159907454E-02
(PID.TID 0000.0001) %MON extforcing_fu_del2           =   7.9917381222575E-03
(PID.TID 0000.0001) %MON extforcing_fv_max            =   1.9841701760888E-01
(PID.TID 0000.0001) %MON extforcing_fv_min            =  -1.9492140710354E-01
(PID.TID 0000.0001) %MON extforcing_fv_mean           =  -7.1188335808876E-03
(PID.TID 0000.0001) %MON extforcing_fv_sd             =   4.4876511589825E-02
(PID.TID 0000.0001) %MON extforcing_fv_del2           =   5.0126075395841E-03
(PID.TID 0000.0001) %MON advcfl_uvel_max              =   2.0124344714965E-02
(PID.TID 0000.0001) %MON advcfl_vvel_max              =   1.5360376961504E-02
(PID.TID 0000.0001) %MON advcfl_wvel_max              =   1.0461633301188E-01
(PID.TID 0000.0001) %MON advcfl_W_hf_max              =   9.8502012458386E-02
(PID.TID 0000.0001) %MON pe_b_mean                    =   2.7397035458854E-04
(PID.TID 0000.0001) %MON ke_max                       =   1.5502762120694E-02
(PID.TID 0000.0001) %MON ke_mean                      =   1.7740139073755E-04
(PID.TID 0000.0001) %MON ke_vol                       =   1.3226782436723E+18
(PID.TID 0000.0001) %MON vort_r_min                   =  -4.5552112555014E-07
(PID.TID 0000.0001) %MON vort_r_max                   =   4.0531352777165E-07
(PID.TID 0000.0001) %MON vort_a_mean                  =  -2.5205769104235E-05
(PID.TID 0000.0001) %MON vort_a_sd                    =   7.3403637609713E-05
(PID.TID 0000.0001) %MON vort_p_mean                  =  -3.1758669193079E-05
(PID.TID 0000.0001) %MON vort_p_sd                    =   1.3126429668148E-04
(PID.TID 0000.0001) %MON surfExpan_theta_mean         =   1.1881455068720E-05
(PID.TID 0000.0001) %MON surfExpan_salt_mean          =   2.2116074541857E-08
(PID.TID 0000.0001) // =======================================================
(PID.TID 0000.0001) // End MONITOR dynamic field statistics
(PID.TID 0000.0001) // =======================================================
time,SST,SSS,fu,fv,Q,E-P,i0,i1,a,b =   3.8016E+06 -4.8218E-01  3.4431E+01 -1.5141E-02 -1.8956E-02  2.4132E+02  0.0000E+00     1     2  9.6667E-01  3.3333E-02
time,fu0,fu1,fu =   3.8016E+06 -3.5633E-02 -1.4435E-02 -1.5141E-02  9.666666666666667E-01  3.333333333333333E-02
 cg2d: Sum(rhs),rhsMax =   4.45744829935535E-12  7.90697490166387E+00
(PID.TID 0000.0001)                    cg2d_init_res =    4.04031686176079E-01
(PID.TID 0000.0001)                       cg2d_iters =    24
(PID.TID 0000.0001)                         cg2d_res =    7.10950780320464E-14
(PID.TID 0000.0001) // =======================================================
(PID.TID 0000.0001) // Begin MONITOR dynamic field statistics
(PID.TID 0000.0001) // =======================================================
(PID.TID 0000.0001) %MON time_tsnumber                =                    89
(PID.TID 0000.0001) %MON time_secondsf                =   3.8448000000000E+06
(PID.TID 0000.0001) %MON dynstat_eta_max              =   8.1488187404193E-01
(PID.TID 0000.0001) %MON dynstat_eta_min              =  -1.4734335664466E+00
(PID.TID 0000.0001) %MON dynstat_eta_mean             =  -2.2430549065309E-15
(PID.TID 0000.0001) %MON dynstat_eta_sd               =   4.6423521316802E-01
(PID.TID 0000.0001) %MON dynstat_eta_del2             =   2.5813638188040E-02
(PID.TID 0000.0001) %MON dynstat_uvel_max             =   1.5184977233807E-01
(PID.TID 0000.0001) %MON dynstat_uvel_min             =  -1.3157444206080E-01
(PID.TID 0000.0001) %MON dynstat_uvel_mean            =   1.5983541955063E-03
(PID.TID 0000.0001) %MON dynstat_uvel_sd              =   1.3609294019050E-02
(PID.TID 0000.0001) %MON dynstat_uvel_del2            =   3.3433928918942E-03
(PID.TID 0000.0001) %MON dynstat_vvel_max             =   1.5842121901233E-01
(PID.TID 0000.0001) %MON dynstat_vvel_min             =  -1.1364844055954E-01
(PID.TID 0000.0001) %MON dynstat_vvel_mean            =  -4.3516221140994E-04
(PID.TID 0000.0001) %MON dynstat_vvel_sd              =   1.4155185504875E-02
(PID.TID 0000.0001) %MON dynstat_vvel_del2            =   3.3777678432317E-03
(PID.TID 0000.0001) %MON dynstat_wvel_max             =   1.6965638173008E-04
(PID.TID 0000.0001) %MON dynstat_wvel_min             =  -1.8847461656670E-04
(PID.TID 0000.0001) %MON dynstat_wvel_mean            =  -4.1858737415831E-22
(PID.TID 0000.0001) %MON dynstat_wvel_sd              =   1.8642953860761E-05
(PID.TID 0000.0001) %MON dynstat_wvel_del2            =   6.5560046868358E-06
(PID.TID 0000.0001) %MON dynstat_theta_max            =   2.9684746627269E+01
(PID.TID 0000.0001) %MON dynstat_theta_min            =  -2.0251574072842E+00
(PID.TID 0000.0001) %MON dynstat_theta_mean           =   3.5887301019478E+00
(PID.TID 0000.0001) %MON dynstat_theta_sd             =   4.3414874466782E+00
(PID.TID 0000.0001) %MON dynstat_theta_del2           =   1.3966180385325E-01
(PID.TID 0000.0001) %MON dynstat_salt_max             =   3.7388397309108E+01
(PID.TID 0000.0001) %MON dynstat_salt_min             =   2.9886601536235E+01
(PID.TID 0000.0001) %MON dynstat_salt_mean            =   3.4715964716953E+01
(PID.TID 0000.0001) %MON dynstat_salt_sd              =   2.9543956485788E-01
(PID.TID 0000.0001) %MON dynstat_salt_del2            =   2.5506987111021E-02
(PID.TID 0000.0001) %MON dynstat_sst_max              =   2.9684746627269E+01
(PID.TID 0000.0001) %MON dynstat_sst_min              =  -1.9312162510285E+00
(PID.TID 0000.0001) %MON dynstat_sst_mean             =   1.8645589857725E+01
(PID.TID 0000.0001) %MON dynstat_sst_sd               =   8.9339197115663E+00
(PID.TID 0000.0001) %MON dynstat_sst_del2             =   2.6933665483191E-01
(PID.TID 0000.0001) %MON dynstat_sss_max              =   3.7388395936963E+01
(PID.TID 0000.0001) %MON dynstat_sss_min              =   2.9886601536235E+01
(PID.TID 0000.0001) %MON dynstat_sss_mean             =   3.4839051038407E+01
(PID.TID 0000.0001) %MON dynstat_sss_sd               =   9.5692630576871E-01
(PID.TID 0000.0001) %MON dynstat_sss_del2             =   7.9129796181043E-02
(PID.TID 0000.0001) %MON extforcing_qnet_max          =   3.5980644938151E+02
(PID.TID 0000.0001) %MON extforcing_qnet_min          =  -1.7307348836263E+02
(PID.TID 0000.0001) %MON extforcing_qnet_mean         =  -1.4050160146347E+01
(PID.TID 0000.0001) %MON extforcing_qnet_sd           =   8.0515925311569E+01
(PID.TID 0000.0001) %MON extforcing_qnet_del2         =   8.5946786734119E+00
(PID.TID 0000.0001) %MON extforcing_qsw_max           =   0.0000000000000E+00
(PID.TID 0000.0001) %MON extforcing_qsw_min           =   0.0000000000000E+00
(PID.TID 0000.0001) %MON extforcing_qsw_mean          =   0.0000000000000E+00
(PID.TID 0000.0001) %MON extforcing_qsw_sd            =   0.0000000000000E+00
(PID.TID 0000.0001) %MON extforcing_qsw_del2          =   0.0000000000000E+00
(PID.TID 0000.0001) %MON extforcing_empmr_max         =   0.0000000000000E+00
(PID.TID 0000.0001) %MON extforcing_empmr_min         =   0.0000000000000E+00
(PID.TID 0000.0001) %MON extforcing_empmr_mean        =   0.0000000000000E+00
(PID.TID 0000.0001) %MON extforcing_empmr_sd          =   0.0000000000000E+00
(PID.TID 0000.0001) %MON extforcing_empmr_del2        =   0.0000000000000E+00
(PID.TID 0000.0001) %MON extforcing_fu_max            =   3.0324836671352E-01
(PID.TID 0000.0001) %MON extforcing_fu_min            =  -2.1682592133681E-01
(PID.TID 0000.0001) %MON extforcing_fu_mean           =   1.7576441401167E-02
(PID.TID 0000.0001) %MON extforcing_fu_sd             =   9.2702887616547E-02
(PID.TID 0000.0001) %MON extforcing_fu_del2           =   8.0326242391317E-03
(PID.TID 0000.0001) %MON extforcing_fv_max            =   1.9947300006946E-01
(PID.TID 0000.0001) %MON extforcing_fv_min            =  -1.9650735656420E-01
(PID.TID 0000.0001) %MON extforcing_fv_mean           =  -7.1514640342452E-03
(PID.TID 0000.0001) %MON extforcing_fv_sd             =   4.4931010890769E-02
(PID.TID 0000.0001) %MON extforcing_fv_del2           =   5.0505882820963E-03
(PID.TID 0000.0001) %MON advcfl_uvel_max              =   1.8962968309003E-02
(PID.TID 0000.0001) %MON advcfl_vvel_max              =   1.5389351041605E-02
(PID.TID 0000.0001) %MON advcfl_wvel_max              =   1.0660546822537E-01
(PID.TID 0000.0001) %MON advcfl_W_hf_max              =   9.9525836575442E-02
(PID.TID 0000.0001) %MON pe_b_mean                    =   2.7577656581188E-04
(PID.TID 0000.0001) %MON ke_max                       =   1.5150309669533E-02
(PID.TID 0000.0001) %MON ke_mean                      =   1.7534523851542E-04
(PID.TID 0000.0001) %MON ke_vol                       =   1.3226782436723E+18
(PID.TID 0000.0001) %MON vort_r_min                   =  -4.5981282770593E-07
(PID.TID 0000.0001) %MON vort_r_max                   =   3.9543605303944E-07
(PID.TID 0000.0001) %MON vort_a_mean                  =  -2.5205769100223E-05
(PID.TID 0000.0001) %MON vort_a_sd                    =   7.3403628498710E-05
(PID.TID 0000.0001) %MON vort_p_mean                  =  -3.1758669188025E-05
(PID.TID 0000.0001) %MON vort_p_sd                    =   1.3126423440615E-04
(PID.TID 0000.0001) %MON surfExpan_theta_mean         =   1.2502453879997E-05
(PID.TID 0000.0001) %MON surfExpan_salt_mean          =   5.1190765861891E-08
(PID.TID 0000.0001) // =======================================================
(PID.TID 0000.0001) // End MONITOR dynamic field statistics
(PID.TID 0000.0001) // =======================================================
time,SST,SSS,fu,fv,Q,E-P,i0,i1,a,b =   3.8448E+06 -5.0702E-01  3.4426E+01 -1.4788E-02 -1.8296E-02  2.4090E+02  0.0000E+00     1     2  9.8333E-01  1.6667E-02
time,fu0,fu1,fu =   3.8448E+06 -3.5633E-02 -1.4435E-02 -1.4788E-02  9.833333333333333E-01  1.666666666666672E-02
 cg2d: Sum(rhs),rhsMax =   4.35172731183542E-12  7.89125117673051E+00
(PID.TID 0000.0001)                    cg2d_init_res =    4.03230733681139E-01
(PID.TID 0000.0001)                       cg2d_iters =    24
(PID.TID 0000.0001)                         cg2d_res =    7.30317362619991E-14
(PID.TID 0000.0001) // =======================================================
(PID.TID 0000.0001) // Begin MONITOR dynamic field statistics
(PID.TID 0000.0001) // =======================================================
(PID.TID 0000.0001) %MON time_tsnumber                =                    90
(PID.TID 0000.0001) %MON time_secondsf                =   3.8880000000000E+06
(PID.TID 0000.0001) %MON dynstat_eta_max              =   8.5006096997676E-01
(PID.TID 0000.0001) %MON dynstat_eta_min              =  -1.4906273512023E+00
(PID.TID 0000.0001) %MON dynstat_eta_mean             =  -2.3957748330906E-15
(PID.TID 0000.0001) %MON dynstat_eta_sd               =   4.6588042198746E-01
(PID.TID 0000.0001) %MON dynstat_eta_del2             =   2.5846857853343E-02
(PID.TID 0000.0001) %MON dynstat_uvel_max             =   1.5073816713056E-01
(PID.TID 0000.0001) %MON dynstat_uvel_min             =  -1.3147539228995E-01
(PID.TID 0000.0001) %MON dynstat_uvel_mean            =   1.5566436763210E-03
(PID.TID 0000.0001) %MON dynstat_uvel_sd              =   1.3476236891687E-02
(PID.TID 0000.0001) %MON dynstat_uvel_del2            =   3.3373344510443E-03
(PID.TID 0000.0001) %MON dynstat_vvel_max             =   1.5850661330605E-01
(PID.TID 0000.0001) %MON dynstat_vvel_min             =  -1.1541072251605E-01
(PID.TID 0000.0001) %MON dynstat_vvel_mean            =  -3.7978821153087E-04
(PID.TID 0000.0001) %MON dynstat_vvel_sd              =   1.4156021379787E-02
(PID.TID 0000.0001) %MON dynstat_vvel_del2            =   3.3815857616440E-03
(PID.TID 0000.0001) %MON dynstat_wvel_max             =   1.6852044201292E-04
(PID.TID 0000.0001) %MON dynstat_wvel_min             =  -1.8823119248762E-04
(PID.TID 0000.0001) %MON dynstat_wvel_mean            =  -3.7880328141727E-23
(PID.TID 0000.0001) %MON dynstat_wvel_sd              =   1.8722897961065E-05
(PID.TID 0000.0001) %MON dynstat_wvel_del2            =   6.5444765275268E-06
(PID.TID 0000.0001) %MON dynstat_theta_max            =   2.9690545154543E+01
(PID.TID 0000.0001) %MON dynstat_theta_min            =  -2.0240028589601E+00
(PID.TID 0000.0001) %MON dynstat_theta_mean           =   3.5886237441948E+00
(PID.TID 0000.0001) %MON dynstat_theta_sd             =   4.3412930795263E+00
(PID.TID 0000.0001) %MON dynstat_theta_del2           =   1.3975653687369E-01
(PID.TID 0000.0001) %MON dynstat_salt_max             =   3.7388042065775E+01
(PID.TID 0000.0001) %MON dynstat_salt_min             =   2.9886910435620E+01
(PID.TID 0000.0001) %MON dynstat_salt_mean            =   3.4715964338209E+01
(PID.TID 0000.0001) %MON dynstat_salt_sd              =   2.9544252626296E-01
(PID.TID 0000.0001) %MON dynstat_salt_del2            =   2.5500231792161E-02
(PID.TID 0000.0001) %MON dynstat_sst_max              =   2.9690545154543E+01
(PID.TID 0000.0001) %MON dynstat_sst_min              =  -1.9317186180812E+00
(PID.TID 0000.0001) %MON dynstat_sst_mean             =   1.8646412382267E+01
(PID.TID 0000.0001) %MON dynstat_sst_sd               =   8.9348597574614E+00
(PID.TID 0000.0001) %MON dynstat_sst_del2             =   2.6934187147680E-01
(PID.TID 0000.0001) %MON dynstat_sss_max              =   3.7388040755449E+01
(PID.TID 0000.0001) %MON dynstat_sss_min              =   2.9886910435620E+01
(PID.TID 0000.0001) %MON dynstat_sss_mean             =   3.4838797999987E+01
(PID.TID 0000.0001) %MON dynstat_sss_sd               =   9.5670367407630E-01
(PID.TID 0000.0001) %MON dynstat_sss_del2             =   7.9069367600376E-02
(PID.TID 0000.0001) %MON extforcing_qnet_max          =   3.5912934468587E+02
(PID.TID 0000.0001) %MON extforcing_qnet_min          =  -1.7295372873942E+02
(PID.TID 0000.0001) %MON extforcing_qnet_mean         =  -1.4007705562645E+01
(PID.TID 0000.0001) %MON extforcing_qnet_sd           =   8.0057286969238E+01
(PID.TID 0000.0001) %MON extforcing_qnet_del2         =   8.5862302649855E+00
(PID.TID 0000.0001) %MON extforcing_qsw_max           =   0.0000000000000E+00
(PID.TID 0000.0001) %MON extforcing_qsw_min           =   0.0000000000000E+00
(PID.TID 0000.0001) %MON extforcing_qsw_mean          =   0.0000000000000E+00
(PID.TID 0000.0001) %MON extforcing_qsw_sd            =   0.0000000000000E+00
(PID.TID 0000.0001) %MON extforcing_qsw_del2          =   0.0000000000000E+00
(PID.TID 0000.0001) %MON extforcing_empmr_max         =   0.0000000000000E+00
(PID.TID 0000.0001) %MON extforcing_empmr_min         =   0.0000000000000E+00
(PID.TID 0000.0001) %MON extforcing_empmr_mean        =   0.0000000000000E+00
(PID.TID 0000.0001) %MON extforcing_empmr_sd          =   0.0000000000000E+00
(PID.TID 0000.0001) %MON extforcing_empmr_del2        =   0.0000000000000E+00
(PID.TID 0000.0001) %MON extforcing_fu_max            =   3.0394194573164E-01
(PID.TID 0000.0001) %MON extforcing_fu_min            =  -2.1824179043372E-01
(PID.TID 0000.0001) %MON extforcing_fu_mean           =   1.7603591508901E-02
(PID.TID 0000.0001) %MON extforcing_fu_sd             =   9.2856632602129E-02
(PID.TID 0000.0001) %MON extforcing_fu_del2           =   8.0749740469917E-03
(PID.TID 0000.0001) %MON extforcing_fv_max            =   2.0052898253004E-01
(PID.TID 0000.0001) %MON extforcing_fv_min            =  -1.9809330602487E-01
(PID.TID 0000.0001) %MON extforcing_fv_mean           =  -7.1840944876027E-03
(PID.TID 0000.0001) %MON extforcing_fv_sd             =   4.4989431366762E-02
(PID.TID 0000.0001) %MON extforcing_fv_del2           =   5.0891224360429E-03
(PID.TID 0000.0001) %MON advcfl_uvel_max              =   1.7972515919961E-02
(PID.TID 0000.0001) %MON advcfl_vvel_max              =   1.5397646412459E-02
(PID.TID 0000.0001) %MON advcfl_wvel_max              =   1.0550071995009E-01
(PID.TID 0000.0001) %MON advcfl_W_hf_max              =   9.8265049978696E-02
(PID.TID 0000.0001) %MON pe_b_mean                    =   2.7773468522910E-04
(PID.TID 0000.0001) %MON ke_max                       =   1.5057330805889E-02
(PID.TID 0000.0001) %MON ke_mean                      =   1.7363850003862E-04
(PID.TID 0000.0001) %MON ke_vol                       =   1.3226782436723E+18
(PID.TID 0000.0001) %MON vort_r_min                   =  -4.6360134998198E-07
(PID.TID 0000.0001) %MON vort_r_max                   =   3.8887517076754E-07
(PID.TID 0000.0001) %MON vort_a_mean                  =  -2.5205769094836E-05
(PID.TID 0000.0001) %MON vort_a_sd                    =   7.3403617758954E-05
(PID.TID 0000.0001) %MON vort_p_mean                  =  -3.1758669181237E-05
(PID.TID 0000.0001) %MON vort_p_sd                    =   1.3126417266303E-04
(PID.TID 0000.0001) %MON surfExpan_theta_mean         =   1.3042266709586E-05
(PID.TID 0000.0001) %MON surfExpan_salt_mean          =   8.7154319880537E-08
(PID.TID 0000.0001) // =======================================================
(PID.TID 0000.0001) // End MONITOR dynamic field statistics
(PID.TID 0000.0001) // =======================================================
S/R EXTERNAL_FIELDS_LOAD: Reading new data:    2    3        90  3.888000000000E+06
(PID.TID 0000.0001)  MDSREADFIELD: opening global file: trenberth_taux.bin
(PID.TID 0000.0001)  MDSREADFIELD: opening global file: trenberth_taux.bin
(PID.TID 0000.0001)  MDSREADFIELD: opening global file: trenberth_tauy.bin
(PID.TID 0000.0001)  MDSREADFIELD: opening global file: trenberth_tauy.bin
(PID.TID 0000.0001)  MDSREADFIELD: opening global file: ncep_qnet.bin
(PID.TID 0000.0001)  MDSREADFIELD: opening global file: ncep_qnet.bin
(PID.TID 0000.0001)  MDSREADFIELD: opening global file: lev_sst.bin
(PID.TID 0000.0001)  MDSREADFIELD: opening global file: lev_sst.bin
(PID.TID 0000.0001)  MDSREADFIELD: opening global file: lev_sss.bin
(PID.TID 0000.0001)  MDSREADFIELD: opening global file: lev_sss.bin
time,SST,SSS,fu,fv,Q,E-P,i0,i1,a,b =   3.8880E+06 -5.3186E-01  3.4421E+01 -1.4435E-02 -1.7636E-02  2.4048E+02  0.0000E+00     2     3  0.0000E+00  1.0000E+00
time,fu0,fu1,fu =   3.8880E+06 -1.4435E-02 -2.7199E-02 -1.4435E-02  0.000000000000000E+00  1.000000000000000E+00
 cg2d: Sum(rhs),rhsMax =   4.30404323292777E-12  7.88464123133911E+00
(PID.TID 0000.0001)                    cg2d_init_res =    3.98922716010509E-01
(PID.TID 0000.0001)                       cg2d_iters =    24
(PID.TID 0000.0001)                         cg2d_res =    6.76695772163562E-14
(PID.TID 0000.0001) // =======================================================
(PID.TID 0000.0001) // Begin MONITOR dynamic field statistics
(PID.TID 0000.0001) // =======================================================
(PID.TID 0000.0001) %MON time_tsnumber                =                    91
(PID.TID 0000.0001) %MON time_secondsf                =   3.9312000000000E+06
(PID.TID 0000.0001) %MON dynstat_eta_max              =   9.1420864354526E-01
(PID.TID 0000.0001) %MON dynstat_eta_min              =  -1.5052234992546E+00
(PID.TID 0000.0001) %MON dynstat_eta_mean             =  -2.2921432016651E-15
(PID.TID 0000.0001) %MON dynstat_eta_sd               =   4.6763886268918E-01
(PID.TID 0000.0001) %MON dynstat_eta_del2             =   2.5897191570851E-02
(PID.TID 0000.0001) %MON dynstat_uvel_max             =   1.4877846878723E-01
(PID.TID 0000.0001) %MON dynstat_uvel_min             =  -1.3136194215015E-01
(PID.TID 0000.0001) %MON dynstat_uvel_mean            =   1.5102463352140E-03
(PID.TID 0000.0001) %MON dynstat_uvel_sd              =   1.3368984564005E-02
(PID.TID 0000.0001) %MON dynstat_uvel_del2            =   3.3312634943207E-03
(PID.TID 0000.0001) %MON dynstat_vvel_max             =   1.5838023641979E-01
(PID.TID 0000.0001) %MON dynstat_vvel_min             =  -1.1708762403994E-01
(PID.TID 0000.0001) %MON dynstat_vvel_mean            =  -3.2204686071869E-04
(PID.TID 0000.0001) %MON dynstat_vvel_sd              =   1.4159403140019E-02
(PID.TID 0000.0001) %MON dynstat_vvel_del2            =   3.3858359117899E-03
(PID.TID 0000.0001) %MON dynstat_wvel_max             =   1.6717420809432E-04
(PID.TID 0000.0001) %MON dynstat_wvel_min             =  -1.8643837350396E-04
(PID.TID 0000.0001) %MON dynstat_wvel_mean            =  -6.5252105064483E-22
(PID.TID 0000.0001) %MON dynstat_wvel_sd              =   1.8797775135448E-05
(PID.TID 0000.0001) %MON dynstat_wvel_del2            =   6.5207920969312E-06
(PID.TID 0000.0001) %MON dynstat_theta_max            =   2.9783325982058E+01
(PID.TID 0000.0001) %MON dynstat_theta_min            =  -2.0227862030185E+00
(PID.TID 0000.0001) %MON dynstat_theta_mean           =   3.5885119440253E+00
(PID.TID 0000.0001) %MON dynstat_theta_sd             =   4.3410736538554E+00
(PID.TID 0000.0001) %MON dynstat_theta_del2           =   1.3981621598619E-01
(PID.TID 0000.0001) %MON dynstat_salt_max             =   3.7387642826423E+01
(PID.TID 0000.0001) %MON dynstat_salt_min             =   2.9887227104339E+01
(PID.TID 0000.0001) %MON dynstat_salt_mean            =   3.4715963517014E+01
(PID.TID 0000.0001) %MON dynstat_salt_sd              =   2.9544635926655E-01
(PID.TID 0000.0001) %MON dynstat_salt_del2            =   2.5487133107292E-02
(PID.TID 0000.0001) %MON dynstat_sst_max              =   2.9783325982058E+01
(PID.TID 0000.0001) %MON dynstat_sst_min              =  -1.9321097262372E+00
(PID.TID 0000.0001) %MON dynstat_sst_mean             =   1.8647574259019E+01
(PID.TID 0000.0001) %MON dynstat_sst_sd               =   8.9353335554085E+00
(PID.TID 0000.0001) %MON dynstat_sst_del2             =   2.6907486695554E-01
(PID.TID 0000.0001) %MON dynstat_sss_max              =   3.7387641575468E+01
(PID.TID 0000.0001) %MON dynstat_sss_min              =   2.9887227104339E+01
(PID.TID 0000.0001) %MON dynstat_sss_mean             =   3.4838589278211E+01
(PID.TID 0000.0001) %MON dynstat_sss_sd               =   9.5651869144629E-01
(PID.TID 0000.0001) %MON dynstat_sss_del2             =   7.8975613886463E-02
(PID.TID 0000.0001) %MON extforcing_qnet_max          =   3.5845223999023E+02
(PID.TID 0000.0001) %MON extforcing_qnet_min          =  -1.7283396911621E+02
(PID.TID 0000.0001) %MON extforcing_qnet_mean         =  -1.3965250978943E+01
(PID.TID 0000.0001) %MON extforcing_qnet_sd           =   7.9600844041117E+01
(PID.TID 0000.0001) %MON extforcing_qnet_del2         =   8.5781683310255E+00
(PID.TID 0000.0001) %MON extforcing_qsw_max           =   0.0000000000000E+00
(PID.TID 0000.0001) %MON extforcing_qsw_min           =   0.0000000000000E+00
(PID.TID 0000.0001) %MON extforcing_qsw_mean          =   0.0000000000000E+00
(PID.TID 0000.0001) %MON extforcing_qsw_sd            =   0.0000000000000E+00
(PID.TID 0000.0001) %MON extforcing_qsw_del2          =   0.0000000000000E+00
(PID.TID 0000.0001) %MON extforcing_empmr_max         =   0.0000000000000E+00
(PID.TID 0000.0001) %MON extforcing_empmr_min         =   0.0000000000000E+00
(PID.TID 0000.0001) %MON extforcing_empmr_mean        =   0.0000000000000E+00
(PID.TID 0000.0001) %MON extforcing_empmr_sd          =   0.0000000000000E+00
(PID.TID 0000.0001) %MON extforcing_empmr_del2        =   0.0000000000000E+00
(PID.TID 0000.0001) %MON extforcing_fu_max            =   3.0463552474976E-01
(PID.TID 0000.0001) %MON extforcing_fu_min            =  -2.1965765953064E-01
(PID.TID 0000.0001) %MON extforcing_fu_mean           =   1.7630741616636E-02
(PID.TID 0000.0001) %MON extforcing_fu_sd             =   9.3014374943535E-02
(PID.TID 0000.0001) %MON extforcing_fu_del2           =   8.1180128458293E-03
(PID.TID 0000.0001) %MON extforcing_fv_max            =   2.0158496499062E-01
(PID.TID 0000.0001) %MON extforcing_fv_min            =  -1.9967925548553E-01
(PID.TID 0000.0001) %MON extforcing_fv_mean           =  -7.2167249409603E-03
(PID.TID 0000.0001) %MON extforcing_fv_sd             =   4.5051757763558E-02
(PID.TID 0000.0001) %MON extforcing_fv_del2           =   5.1284108331366E-03
(PID.TID 0000.0001) %MON advcfl_uvel_max              =   1.7966989409594E-02
(PID.TID 0000.0001) %MON advcfl_vvel_max              =   1.5385369911380E-02
(PID.TID 0000.0001) %MON advcfl_wvel_max              =   1.0141222340673E-01
(PID.TID 0000.0001) %MON advcfl_W_hf_max              =   9.4786631824530E-02
(PID.TID 0000.0001) %MON pe_b_mean                    =   2.7983523135091E-04
(PID.TID 0000.0001) %MON ke_max                       =   1.4955287786343E-02
(PID.TID 0000.0001) %MON ke_mean                      =   1.7229057887082E-04
(PID.TID 0000.0001) %MON ke_vol                       =   1.3226782436723E+18
(PID.TID 0000.0001) %MON vort_r_min                   =  -4.6682899276874E-07
(PID.TID 0000.0001) %MON vort_r_max                   =   3.8223252152903E-07
(PID.TID 0000.0001) %MON vort_a_mean                  =  -2.5205769088439E-05
(PID.TID 0000.0001) %MON vort_a_sd                    =   7.3403605666809E-05
(PID.TID 0000.0001) %MON vort_p_mean                  =  -3.1758669173176E-05
(PID.TID 0000.0001) %MON vort_p_sd                    =   1.3126411288338E-04
(PID.TID 0000.0001) %MON surfExpan_theta_mean         =   1.3494136503097E-05
(PID.TID 0000.0001) %MON surfExpan_salt_mean          =   1.2789630484211E-07
(PID.TID 0000.0001) // =======================================================
(PID.TID 0000.0001) // End MONITOR dynamic field statistics
(PID.TID 0000.0001) // =======================================================
time,SST,SSS,fu,fv,Q,E-P,i0,i1,a,b =   3.9312E+06 -5.2606E-01  3.4424E+01 -1.4647E-02 -1.7351E-02  2.4006E+02  0.0000E+00     2     3  1.6667E-02  9.8333E-01
time,fu0,fu1,fu =   3.9312E+06 -1.4435E-02 -2.7199E-02 -1.4647E-02  1.666666666666667E-02  9.833333333333333E-01
 cg2d: Sum(rhs),rhsMax =   4.54736248656218E-12  8.18557498459242E+00
(PID.TID 0000.0001)                    cg2d_init_res =    3.77074333800158E-01
(PID.TID 0000.0001)                       cg2d_iters =    24
(PID.TID 0000.0001)                         cg2d_res =    7.25584087920837E-14
(PID.TID 0000.0001) // =======================================================
(PID.TID 0000.0001) // Begin MONITOR dynamic field statistics
(PID.TID 0000.0001) // =======================================================
(PID.TID 0000.0001) %MON time_tsnumber                =                    92
(PID.TID 0000.0001) %MON time_secondsf                =   3.9744000000000E+06
(PID.TID 0000.0001) %MON dynstat_eta_max              =   9.7471008608553E-01
(PID.TID 0000.0001) %MON dynstat_eta_min              =  -1.5169398914678E+00
(PID.TID 0000.0001) %MON dynstat_eta_mean             =  -2.2529956754360E-15
(PID.TID 0000.0001) %MON dynstat_eta_sd               =   4.6949673693155E-01
(PID.TID 0000.0001) %MON dynstat_eta_del2             =   2.5980466929965E-02
(PID.TID 0000.0001) %MON dynstat_uvel_max             =   1.4593171471989E-01
(PID.TID 0000.0001) %MON dynstat_uvel_min             =  -1.3122135637406E-01
(PID.TID 0000.0001) %MON dynstat_uvel_mean            =   1.4607388337829E-03
(PID.TID 0000.0001) %MON dynstat_uvel_sd              =   1.3290275426486E-02
(PID.TID 0000.0001) %MON dynstat_uvel_del2            =   3.3248179981225E-03
(PID.TID 0000.0001) %MON dynstat_vvel_max             =   1.5803890727155E-01
(PID.TID 0000.0001) %MON dynstat_vvel_min             =  -1.1864728843986E-01
(PID.TID 0000.0001) %MON dynstat_vvel_mean            =  -2.6124133016665E-04
(PID.TID 0000.0001) %MON dynstat_vvel_sd              =   1.4163595626983E-02
(PID.TID 0000.0001) %MON dynstat_vvel_del2            =   3.3894032581243E-03
(PID.TID 0000.0001) %MON dynstat_wvel_max             =   1.6558920077257E-04
(PID.TID 0000.0001) %MON dynstat_wvel_min             =  -1.8320467050220E-04
(PID.TID 0000.0001) %MON dynstat_wvel_mean            =   1.1138169752118E-22
(PID.TID 0000.0001) %MON dynstat_wvel_sd              =   1.8860629738988E-05
(PID.TID 0000.0001) %MON dynstat_wvel_del2            =   6.4822072294328E-06
(PID.TID 0000.0001) %MON dynstat_theta_max            =   2.9887301637668E+01
(PID.TID 0000.0001) %MON dynstat_theta_min            =  -2.0215197972202E+00
(PID.TID 0000.0001) %MON dynstat_theta_mean           =   3.5883951832920E+00
(PID.TID 0000.0001) %MON dynstat_theta_sd             =   4.3408317578048E+00
(PID.TID 0000.0001) %MON dynstat_theta_del2           =   1.3985542800958E-01
(PID.TID 0000.0001) %MON dynstat_salt_max             =   3.7387222346910E+01
(PID.TID 0000.0001) %MON dynstat_salt_min             =   2.9887548172359E+01
(PID.TID 0000.0001) %MON dynstat_salt_mean            =   3.4715962209118E+01
(PID.TID 0000.0001) %MON dynstat_salt_sd              =   2.9545111531971E-01
(PID.TID 0000.0001) %MON dynstat_salt_del2            =   2.5468742460923E-02
(PID.TID 0000.0001) %MON dynstat_sst_max              =   2.9887301637668E+01
(PID.TID 0000.0001) %MON dynstat_sst_min              =  -1.9322021636564E+00
(PID.TID 0000.0001) %MON dynstat_sst_mean             =   1.8648825099150E+01
(PID.TID 0000.0001) %MON dynstat_sst_sd               =   8.9359861052595E+00
(PID.TID 0000.0001) %MON dynstat_sst_del2             =   2.6888039846403E-01
(PID.TID 0000.0001) %MON dynstat_sss_max              =   3.7387221169439E+01
(PID.TID 0000.0001) %MON dynstat_sss_min              =   2.9887548172359E+01
(PID.TID 0000.0001) %MON dynstat_sss_mean             =   3.4838422338752E+01
(PID.TID 0000.0001) %MON dynstat_sss_sd               =   9.5644082909726E-01
(PID.TID 0000.0001) %MON dynstat_sss_del2             =   7.8858912606476E-02
(PID.TID 0000.0001) %MON extforcing_qnet_max          =   3.5705316416423E+02
(PID.TID 0000.0001) %MON extforcing_qnet_min          =  -1.7268432947795E+02
(PID.TID 0000.0001) %MON extforcing_qnet_mean         =  -1.3853581229130E+01
(PID.TID 0000.0001) %MON extforcing_qnet_sd           =   7.8885854981310E+01
(PID.TID 0000.0001) %MON extforcing_qnet_del2         =   8.5457355704658E+00
(PID.TID 0000.0001) %MON extforcing_qsw_max           =   0.0000000000000E+00
(PID.TID 0000.0001) %MON extforcing_qsw_min           =   0.0000000000000E+00
(PID.TID 0000.0001) %MON extforcing_qsw_mean          =   0.0000000000000E+00
(PID.TID 0000.0001) %MON extforcing_qsw_sd            =   0.0000000000000E+00
(PID.TID 0000.0001) %MON extforcing_qsw_del2          =   0.0000000000000E+00
(PID.TID 0000.0001) %MON extforcing_empmr_max         =   0.0000000000000E+00
(PID.TID 0000.0001) %MON extforcing_empmr_min         =   0.0000000000000E+00
(PID.TID 0000.0001) %MON extforcing_empmr_mean        =   0.0000000000000E+00
(PID.TID 0000.0001) %MON extforcing_empmr_sd          =   0.0000000000000E+00
(PID.TID 0000.0001) %MON extforcing_empmr_del2        =   0.0000000000000E+00
(PID.TID 0000.0001) %MON extforcing_fu_max            =   3.0529770106077E-01
(PID.TID 0000.0001) %MON extforcing_fu_min            =  -2.1852717300256E-01
(PID.TID 0000.0001) %MON extforcing_fu_mean           =   1.7677841411365E-02
(PID.TID 0000.0001) %MON extforcing_fu_sd             =   9.3013885977022E-02
(PID.TID 0000.0001) %MON extforcing_fu_del2           =   8.0972499177674E-03
(PID.TID 0000.0001) %MON extforcing_fv_max            =   1.9874161885430E-01
(PID.TID 0000.0001) %MON extforcing_fv_min            =  -1.9893623739481E-01
(PID.TID 0000.0001) %MON extforcing_fv_mean           =  -7.2219391159451E-03
(PID.TID 0000.0001) %MON extforcing_fv_sd             =   4.4889375779581E-02
(PID.TID 0000.0001) %MON extforcing_fv_del2           =   5.0936456641149E-03
(PID.TID 0000.0001) %MON advcfl_uvel_max              =   1.9315372592612E-02
(PID.TID 0000.0001) %MON advcfl_vvel_max              =   1.5352212521759E-02
(PID.TID 0000.0001) %MON advcfl_wvel_max              =   9.4626323806725E-02
(PID.TID 0000.0001) %MON advcfl_W_hf_max              =   8.9199420932094E-02
(PID.TID 0000.0001) %MON pe_b_mean                    =   2.8206315318612E-04
(PID.TID 0000.0001) %MON ke_max                       =   1.4845784473822E-02
(PID.TID 0000.0001) %MON ke_mean                      =   1.7130784012289E-04
(PID.TID 0000.0001) %MON ke_vol                       =   1.3226782436723E+18
(PID.TID 0000.0001) %MON vort_r_min                   =  -4.6945847402911E-07
(PID.TID 0000.0001) %MON vort_r_max                   =   3.7842770835369E-07
(PID.TID 0000.0001) %MON vort_a_mean                  =  -2.5205769080873E-05
(PID.TID 0000.0001) %MON vort_a_sd                    =   7.3403592526202E-05
(PID.TID 0000.0001) %MON vort_p_mean                  =  -3.1758669163643E-05
(PID.TID 0000.0001) %MON vort_p_sd                    =   1.3126405644087E-04
(PID.TID 0000.0001) %MON surfExpan_theta_mean         =   1.3853250432752E-05
(PID.TID 0000.0001) %MON surfExpan_salt_mean          =   1.7086494055755E-07
(PID.TID 0000.0001) // =======================================================
(PID.TID 0000.0001) // End MONITOR dynamic field statistics
(PID.TID 0000.0001) // =======================================================
time,SST,SSS,fu,fv,Q,E-P,i0,i1,a,b =   3.9744E+06 -5.2026E-01  3.4426E+01 -1.4860E-02 -1.7067E-02  2.3964E+02  0.0000E+00     2     3  3.3333E-02  9.6667E-01
time,fu0,fu1,fu =   3.9744E+06 -1.4435E-02 -2.7199E-02 -1.4860E-02  3.333333333333333E-02  9.666666666666667E-01
 cg2d: Sum(rhs),rhsMax =   4.02858302273046E-12  8.65937283615722E+00
(PID.TID 0000.0001)                    cg2d_init_res =    3.47482049473404E-01
(PID.TID 0000.0001)                       cg2d_iters =    24
(PID.TID 0000.0001)                         cg2d_res =    7.00469116121253E-14
(PID.TID 0000.0001) // =======================================================
(PID.TID 0000.0001) // Begin MONITOR dynamic field statistics
(PID.TID 0000.0001) // =======================================================
(PID.TID 0000.0001) %MON time_tsnumber                =                    93
(PID.TID 0000.0001) %MON time_secondsf                =   4.0176000000000E+06
(PID.TID 0000.0001) %MON dynstat_eta_max              =   1.0302757252453E+00
(PID.TID 0000.0001) %MON dynstat_eta_min              =  -1.5255945324430E+00
(PID.TID 0000.0001) %MON dynstat_eta_mean             =  -2.0229429345469E-15
(PID.TID 0000.0001) %MON dynstat_eta_sd               =   4.7143665658896E-01
(PID.TID 0000.0001) %MON dynstat_eta_del2             =   2.6098667736586E-02
(PID.TID 0000.0001) %MON dynstat_uvel_max             =   1.4226817936388E-01
(PID.TID 0000.0001) %MON dynstat_uvel_min             =  -1.3106651346865E-01
(PID.TID 0000.0001) %MON dynstat_uvel_mean            =   1.4096788949104E-03
(PID.TID 0000.0001) %MON dynstat_uvel_sd              =   1.3242559874119E-02
(PID.TID 0000.0001) %MON dynstat_uvel_del2            =   3.3188448875033E-03
(PID.TID 0000.0001) %MON dynstat_vvel_max             =   1.5748696503104E-01
(PID.TID 0000.0001) %MON dynstat_vvel_min             =  -1.2084231185625E-01
(PID.TID 0000.0001) %MON dynstat_vvel_mean            =  -1.9682140403516E-04
(PID.TID 0000.0001) %MON dynstat_vvel_sd              =   1.4167075568470E-02
(PID.TID 0000.0001) %MON dynstat_vvel_del2            =   3.3926190456935E-03
(PID.TID 0000.0001) %MON dynstat_wvel_max             =   1.6373851542503E-04
(PID.TID 0000.0001) %MON dynstat_wvel_min             =  -1.7866675983459E-04
(PID.TID 0000.0001) %MON dynstat_wvel_mean            =   1.5987035249642E-22
(PID.TID 0000.0001) %MON dynstat_wvel_sd              =   1.8906112026940E-05
(PID.TID 0000.0001) %MON dynstat_wvel_del2            =   6.4374793913733E-06
(PID.TID 0000.0001) %MON dynstat_theta_max            =   2.9983648659458E+01
(PID.TID 0000.0001) %MON dynstat_theta_min            =  -2.0202166055155E+00
(PID.TID 0000.0001) %MON dynstat_theta_mean           =   3.5882747305470E+00
(PID.TID 0000.0001) %MON dynstat_theta_sd             =   4.3405708630504E+00
(PID.TID 0000.0001) %MON dynstat_theta_del2           =   1.3988514292192E-01
(PID.TID 0000.0001) %MON dynstat_salt_max             =   3.7386779873186E+01
(PID.TID 0000.0001) %MON dynstat_salt_min             =   2.9887869671972E+01
(PID.TID 0000.0001) %MON dynstat_salt_mean            =   3.4715960405881E+01
(PID.TID 0000.0001) %MON dynstat_salt_sd              =   2.9545588640321E-01
(PID.TID 0000.0001) %MON dynstat_salt_del2            =   2.5451791173611E-02
(PID.TID 0000.0001) %MON dynstat_sst_max              =   2.9983648659458E+01
(PID.TID 0000.0001) %MON dynstat_sst_min              =  -1.9321896594083E+00
(PID.TID 0000.0001) %MON dynstat_sst_mean             =   1.8650233132230E+01
(PID.TID 0000.0001) %MON dynstat_sst_sd               =   8.9363631903800E+00
(PID.TID 0000.0001) %MON dynstat_sst_del2             =   2.6856658647945E-01
(PID.TID 0000.0001) %MON dynstat_sss_max              =   3.7386778758110E+01
(PID.TID 0000.0001) %MON dynstat_sss_min              =   2.9887869671972E+01
(PID.TID 0000.0001) %MON dynstat_sss_mean             =   3.4838257230075E+01
(PID.TID 0000.0001) %MON dynstat_sss_sd               =   9.5633401233579E-01
(PID.TID 0000.0001) %MON dynstat_sss_del2             =   7.8782281414074E-02
(PID.TID 0000.0001) %MON extforcing_qnet_max          =   3.5565408833822E+02
(PID.TID 0000.0001) %MON extforcing_qnet_min          =  -1.7253468983968E+02
(PID.TID 0000.0001) %MON extforcing_qnet_mean         =  -1.3741911479317E+01
(PID.TID 0000.0001) %MON extforcing_qnet_sd           =   7.8173808417116E+01
(PID.TID 0000.0001) %MON extforcing_qnet_del2         =   8.5138944622798E+00
(PID.TID 0000.0001) %MON extforcing_qsw_max           =   0.0000000000000E+00
(PID.TID 0000.0001) %MON extforcing_qsw_min           =   0.0000000000000E+00
(PID.TID 0000.0001) %MON extforcing_qsw_mean          =   0.0000000000000E+00
(PID.TID 0000.0001) %MON extforcing_qsw_sd            =   0.0000000000000E+00
(PID.TID 0000.0001) %MON extforcing_qsw_del2          =   0.0000000000000E+00
(PID.TID 0000.0001) %MON extforcing_empmr_max         =   0.0000000000000E+00
(PID.TID 0000.0001) %MON extforcing_empmr_min         =   0.0000000000000E+00
(PID.TID 0000.0001) %MON extforcing_empmr_mean        =   0.0000000000000E+00
(PID.TID 0000.0001) %MON extforcing_empmr_sd          =   0.0000000000000E+00
(PID.TID 0000.0001) %MON extforcing_empmr_del2        =   0.0000000000000E+00
(PID.TID 0000.0001) %MON extforcing_fu_max            =   3.0595987737179E-01
(PID.TID 0000.0001) %MON extforcing_fu_min            =  -2.2111698041360E-01
(PID.TID 0000.0001) %MON extforcing_fu_mean           =   1.7724941206094E-02
(PID.TID 0000.0001) %MON extforcing_fu_sd             =   9.3018818826085E-02
(PID.TID 0000.0001) %MON extforcing_fu_del2           =   8.0768474068847E-03
(PID.TID 0000.0001) %MON extforcing_fv_max            =   1.9589827271799E-01
(PID.TID 0000.0001) %MON extforcing_fv_min            =  -1.9819321930408E-01
(PID.TID 0000.0001) %MON extforcing_fv_mean           =  -7.2271532909298E-03
(PID.TID 0000.0001) %MON extforcing_fv_sd             =   4.4730626914368E-02
(PID.TID 0000.0001) %MON extforcing_fv_del2           =   5.0596793742234E-03
(PID.TID 0000.0001) %MON advcfl_uvel_max              =   2.0642902486950E-02
(PID.TID 0000.0001) %MON advcfl_vvel_max              =   1.5298595759139E-02
(PID.TID 0000.0001) %MON advcfl_wvel_max              =   8.7974220766596E-02
(PID.TID 0000.0001) %MON advcfl_W_hf_max              =   8.1649166489962E-02
(PID.TID 0000.0001) %MON pe_b_mean                    =   2.8439888956993E-04
(PID.TID 0000.0001) %MON ke_max                       =   1.4728497365244E-02
(PID.TID 0000.0001) %MON ke_mean                      =   1.7069709145090E-04
(PID.TID 0000.0001) %MON ke_vol                       =   1.3226782436723E+18
(PID.TID 0000.0001) %MON vort_r_min                   =  -4.7147232127598E-07
(PID.TID 0000.0001) %MON vort_r_max                   =   3.8020509376076E-07
(PID.TID 0000.0001) %MON vort_a_mean                  =  -2.5205769072826E-05
(PID.TID 0000.0001) %MON vort_a_sd                    =   7.3403578644781E-05
(PID.TID 0000.0001) %MON vort_p_mean                  =  -3.1758669153505E-05
(PID.TID 0000.0001) %MON vort_p_sd                    =   1.3126400467882E-04
(PID.TID 0000.0001) %MON surfExpan_theta_mean         =   1.4119479543960E-05
(PID.TID 0000.0001) %MON surfExpan_salt_mean          =   2.1457315043752E-07
(PID.TID 0000.0001) // =======================================================
(PID.TID 0000.0001) // End MONITOR dynamic field statistics
(PID.TID 0000.0001) // =======================================================
time,SST,SSS,fu,fv,Q,E-P,i0,i1,a,b =   4.0176E+06 -5.1446E-01  3.4429E+01 -1.5073E-02 -1.6783E-02  2.3923E+02  0.0000E+00     2     3  5.0000E-02  9.5000E-01
time,fu0,fu1,fu =   4.0176E+06 -1.4435E-02 -2.7199E-02 -1.5073E-02  5.000000000000000E-02  9.500000000000000E-01
 cg2d: Sum(rhs),rhsMax =   3.51526446840111E-12  9.08149160696374E+00
(PID.TID 0000.0001)                    cg2d_init_res =    3.21218278836392E-01
(PID.TID 0000.0001)                       cg2d_iters =    24
(PID.TID 0000.0001)                         cg2d_res =    5.26865770437788E-14
(PID.TID 0000.0001) // =======================================================
(PID.TID 0000.0001) // Begin MONITOR dynamic field statistics
(PID.TID 0000.0001) // =======================================================
(PID.TID 0000.0001) %MON time_tsnumber                =                    94
(PID.TID 0000.0001) %MON time_secondsf                =   4.0608000000000E+06
(PID.TID 0000.0001) %MON dynstat_eta_max              =   1.0798004676592E+00
(PID.TID 0000.0001) %MON dynstat_eta_min              =  -1.5311169365266E+00
(PID.TID 0000.0001) %MON dynstat_eta_mean             =  -2.0908444001570E-15
(PID.TID 0000.0001) %MON dynstat_eta_sd               =   4.7343892388226E-01
(PID.TID 0000.0001) %MON dynstat_eta_del2             =   2.6226014801890E-02
(PID.TID 0000.0001) %MON dynstat_uvel_max             =   1.3783868324950E-01
(PID.TID 0000.0001) %MON dynstat_uvel_min             =  -1.3090161823857E-01
(PID.TID 0000.0001) %MON dynstat_uvel_mean            =   1.3585825411318E-03
(PID.TID 0000.0001) %MON dynstat_uvel_sd              =   1.3227836985148E-02
(PID.TID 0000.0001) %MON dynstat_uvel_del2            =   3.3139392630183E-03
(PID.TID 0000.0001) %MON dynstat_vvel_max             =   1.5672674567899E-01
(PID.TID 0000.0001) %MON dynstat_vvel_min             =  -1.2480149138301E-01
(PID.TID 0000.0001) %MON dynstat_vvel_mean            =  -1.2840567504475E-04
(PID.TID 0000.0001) %MON dynstat_vvel_sd              =   1.4168315066425E-02
(PID.TID 0000.0001) %MON dynstat_vvel_del2            =   3.3932113296755E-03
(PID.TID 0000.0001) %MON dynstat_wvel_max             =   1.6160367228074E-04
(PID.TID 0000.0001) %MON dynstat_wvel_min             =  -1.7298800363166E-04
(PID.TID 0000.0001) %MON dynstat_wvel_mean            =  -1.0731039370940E-22
(PID.TID 0000.0001) %MON dynstat_wvel_sd              =   1.8930637568598E-05
(PID.TID 0000.0001) %MON dynstat_wvel_del2            =   6.3884570146439E-06
(PID.TID 0000.0001) %MON dynstat_theta_max            =   3.0070482332452E+01
(PID.TID 0000.0001) %MON dynstat_theta_min            =  -2.0188896590593E+00
(PID.TID 0000.0001) %MON dynstat_theta_mean           =   3.5881516103231E+00
(PID.TID 0000.0001) %MON dynstat_theta_sd             =   4.3402953849731E+00
(PID.TID 0000.0001) %MON dynstat_theta_del2           =   1.3989471694971E-01
(PID.TID 0000.0001) %MON dynstat_salt_max             =   3.7386321879591E+01
(PID.TID 0000.0001) %MON dynstat_salt_min             =   2.9888182834360E+01
(PID.TID 0000.0001) %MON dynstat_salt_mean            =   3.4715958109824E+01
(PID.TID 0000.0001) %MON dynstat_salt_sd              =   2.9546025310689E-01
(PID.TID 0000.0001) %MON dynstat_salt_del2            =   2.5431871890004E-02
(PID.TID 0000.0001) %MON dynstat_sst_max              =   3.0070482332452E+01
(PID.TID 0000.0001) %MON dynstat_sst_min              =  -1.9320025990202E+00
(PID.TID 0000.0001) %MON dynstat_sst_mean             =   1.8651759453341E+01
(PID.TID 0000.0001) %MON dynstat_sst_sd               =   8.9367815771136E+00
(PID.TID 0000.0001) %MON dynstat_sst_del2             =   2.6835560914422E-01
(PID.TID 0000.0001) %MON dynstat_sss_max              =   3.7386320821702E+01
(PID.TID 0000.0001) %MON dynstat_sss_min              =   2.9888182834360E+01
(PID.TID 0000.0001) %MON dynstat_sss_mean             =   3.4838106206754E+01
(PID.TID 0000.0001) %MON dynstat_sss_sd               =   9.5625371950957E-01
(PID.TID 0000.0001) %MON dynstat_sss_del2             =   7.8696668933102E-02
(PID.TID 0000.0001) %MON extforcing_qnet_max          =   3.5425501251221E+02
(PID.TID 0000.0001) %MON extforcing_qnet_min          =  -1.7238505020142E+02
(PID.TID 0000.0001) %MON extforcing_qnet_mean         =  -1.3630241729503E+01
(PID.TID 0000.0001) %MON extforcing_qnet_sd           =   7.7464785489727E+01
(PID.TID 0000.0001) %MON extforcing_qnet_del2         =   8.4825968199561E+00
(PID.TID 0000.0001) %MON extforcing_qsw_max           =   0.0000000000000E+00
(PID.TID 0000.0001) %MON extforcing_qsw_min           =   0.0000000000000E+00
(PID.TID 0000.0001) %MON extforcing_qsw_mean          =   0.0000000000000E+00
(PID.TID 0000.0001) %MON extforcing_qsw_sd            =   0.0000000000000E+00
(PID.TID 0000.0001) %MON extforcing_qsw_del2          =   0.0000000000000E+00
(PID.TID 0000.0001) %MON extforcing_empmr_max         =   0.0000000000000E+00
(PID.TID 0000.0001) %MON extforcing_empmr_min         =   0.0000000000000E+00
(PID.TID 0000.0001) %MON extforcing_empmr_mean        =   0.0000000000000E+00
(PID.TID 0000.0001) %MON extforcing_empmr_sd          =   0.0000000000000E+00
(PID.TID 0000.0001) %MON extforcing_empmr_del2        =   0.0000000000000E+00
(PID.TID 0000.0001) %MON extforcing_fu_max            =   3.0662205368280E-01
(PID.TID 0000.0001) %MON extforcing_fu_min            =  -2.2380929514766E-01
(PID.TID 0000.0001) %MON extforcing_fu_mean           =   1.7772041000823E-02
(PID.TID 0000.0001) %MON extforcing_fu_sd             =   9.3029172628254E-02
(PID.TID 0000.0001) %MON extforcing_fu_del2           =   8.0577607168390E-03
(PID.TID 0000.0001) %MON extforcing_fv_max            =   1.9305492658168E-01
(PID.TID 0000.0001) %MON extforcing_fv_min            =  -1.9745020121336E-01
(PID.TID 0000.0001) %MON extforcing_fv_mean           =  -7.2323674659145E-03
(PID.TID 0000.0001) %MON extforcing_fv_sd             =   4.4575549984293E-02
(PID.TID 0000.0001) %MON extforcing_fv_del2           =   5.0264558607569E-03
(PID.TID 0000.0001) %MON advcfl_uvel_max              =   2.1918391116109E-02
(PID.TID 0000.0001) %MON advcfl_vvel_max              =   1.5224746545313E-02
(PID.TID 0000.0001) %MON advcfl_wvel_max              =   8.3820279869671E-02
(PID.TID 0000.0001) %MON advcfl_W_hf_max              =   7.7405235812999E-02
(PID.TID 0000.0001) %MON pe_b_mean                    =   2.8681979530137E-04
(PID.TID 0000.0001) %MON ke_max                       =   1.4603501724533E-02
(PID.TID 0000.0001) %MON ke_mean                      =   1.7046155179822E-04
(PID.TID 0000.0001) %MON ke_vol                       =   1.3226782436723E+18
(PID.TID 0000.0001) %MON vort_r_min                   =  -4.7287325187397E-07
(PID.TID 0000.0001) %MON vort_r_max                   =   3.8186984605514E-07
(PID.TID 0000.0001) %MON vort_a_mean                  =  -2.5205769064742E-05
(PID.TID 0000.0001) %MON vort_a_sd                    =   7.3403564337265E-05
(PID.TID 0000.0001) %MON vort_p_mean                  =  -3.1758669143320E-05
(PID.TID 0000.0001) %MON vort_p_sd                    =   1.3126395881001E-04
(PID.TID 0000.0001) %MON surfExpan_theta_mean         =   1.4292236879665E-05
(PID.TID 0000.0001) %MON surfExpan_salt_mean          =   2.5669588839247E-07
(PID.TID 0000.0001) // =======================================================
(PID.TID 0000.0001) // End MONITOR dynamic field statistics
(PID.TID 0000.0001) // =======================================================
time,SST,SSS,fu,fv,Q,E-P,i0,i1,a,b =   4.0608E+06 -5.0866E-01  3.4432E+01 -1.5286E-02 -1.6498E-02  2.3881E+02  0.0000E+00     2     3  6.6667E-02  9.3333E-01
time,fu0,fu1,fu =   4.0608E+06 -1.4435E-02 -2.7199E-02 -1.5286E-02  6.666666666666667E-02  9.333333333333333E-01
 cg2d: Sum(rhs),rhsMax =   3.74738434727462E-12  9.44424379823296E+00
(PID.TID 0000.0001)                    cg2d_init_res =    2.98225776718827E-01
(PID.TID 0000.0001)                       cg2d_iters =    24
(PID.TID 0000.0001)                         cg2d_res =    6.57011354023089E-14
(PID.TID 0000.0001) // =======================================================
(PID.TID 0000.0001) // Begin MONITOR dynamic field statistics
(PID.TID 0000.0001) // =======================================================
(PID.TID 0000.0001) %MON time_tsnumber                =                    95
(PID.TID 0000.0001) %MON time_secondsf                =   4.1040000000000E+06
(PID.TID 0000.0001) %MON dynstat_eta_max              =   1.1223807536016E+00
(PID.TID 0000.0001) %MON dynstat_eta_min              =  -1.5335514176893E+00
(PID.TID 0000.0001) %MON dynstat_eta_mean             =  -2.1392180919749E-15
(PID.TID 0000.0001) %MON dynstat_eta_sd               =   4.7548283483027E-01
(PID.TID 0000.0001) %MON dynstat_eta_del2             =   2.6353113644409E-02
(PID.TID 0000.0001) %MON dynstat_uvel_max             =   1.3270126775795E-01
(PID.TID 0000.0001) %MON dynstat_uvel_min             =  -1.3072956129572E-01
(PID.TID 0000.0001) %MON dynstat_uvel_mean            =   1.3088755832259E-03
(PID.TID 0000.0001) %MON dynstat_uvel_sd              =   1.3247336559916E-02
(PID.TID 0000.0001) %MON dynstat_uvel_del2            =   3.3094345097866E-03
(PID.TID 0000.0001) %MON dynstat_vvel_max             =   1.5576058120669E-01
(PID.TID 0000.0001) %MON dynstat_vvel_min             =  -1.2798929048062E-01
(PID.TID 0000.0001) %MON dynstat_vvel_mean            =  -5.5794270139910E-05
(PID.TID 0000.0001) %MON dynstat_vvel_sd              =   1.4165973042877E-02
(PID.TID 0000.0001) %MON dynstat_vvel_del2            =   3.3920999478405E-03
(PID.TID 0000.0001) %MON dynstat_wvel_max             =   1.5917217199631E-04
(PID.TID 0000.0001) %MON dynstat_wvel_min             =  -1.6766343876413E-04
(PID.TID 0000.0001) %MON dynstat_wvel_mean            =   5.7584291744604E-22
(PID.TID 0000.0001) %MON dynstat_wvel_sd              =   1.8932371267159E-05
(PID.TID 0000.0001) %MON dynstat_wvel_del2            =   6.3387344150662E-06
(PID.TID 0000.0001) %MON dynstat_theta_max            =   3.0146173066744E+01
(PID.TID 0000.0001) %MON dynstat_theta_min            =  -2.0175517407360E+00
(PID.TID 0000.0001) %MON dynstat_theta_mean           =   3.5880268674748E+00
(PID.TID 0000.0001) %MON dynstat_theta_sd             =   4.3400092903596E+00
(PID.TID 0000.0001) %MON dynstat_theta_del2           =   1.3989514591102E-01
(PID.TID 0000.0001) %MON dynstat_salt_max             =   3.7385855364522E+01
(PID.TID 0000.0001) %MON dynstat_salt_min             =   2.9888476880361E+01
(PID.TID 0000.0001) %MON dynstat_salt_mean            =   3.4715955353761E+01
(PID.TID 0000.0001) %MON dynstat_salt_sd              =   2.9546374051283E-01
(PID.TID 0000.0001) %MON dynstat_salt_del2            =   2.5411171692498E-02
(PID.TID 0000.0001) %MON dynstat_sst_max              =   3.0146173066744E+01
(PID.TID 0000.0001) %MON dynstat_sst_min              =  -1.9316390128950E+00
(PID.TID 0000.0001) %MON dynstat_sst_mean             =   1.8653523008757E+01
(PID.TID 0000.0001) %MON dynstat_sst_sd               =   8.9371407359883E+00
(PID.TID 0000.0001) %MON dynstat_sst_del2             =   2.6817580108858E-01
(PID.TID 0000.0001) %MON dynstat_sss_max              =   3.7385854358073E+01
(PID.TID 0000.0001) %MON dynstat_sss_min              =   2.9888476880361E+01
(PID.TID 0000.0001) %MON dynstat_sss_mean             =   3.4837991453333E+01
(PID.TID 0000.0001) %MON dynstat_sss_sd               =   9.5620634410324E-01
(PID.TID 0000.0001) %MON dynstat_sss_del2             =   7.8613486746359E-02
(PID.TID 0000.0001) %MON extforcing_qnet_max          =   3.5285593668620E+02
(PID.TID 0000.0001) %MON extforcing_qnet_min          =  -1.7223541056315E+02
(PID.TID 0000.0001) %MON extforcing_qnet_mean         =  -1.3518571979690E+01
(PID.TID 0000.0001) %MON extforcing_qnet_sd           =   7.6758869987334E+01
(PID.TID 0000.0001) %MON extforcing_qnet_del2         =   8.4518732226783E+00
(PID.TID 0000.0001) %MON extforcing_qsw_max           =   0.0000000000000E+00
(PID.TID 0000.0001) %MON extforcing_qsw_min           =   0.0000000000000E+00
(PID.TID 0000.0001) %MON extforcing_qsw_mean          =   0.0000000000000E+00
(PID.TID 0000.0001) %MON extforcing_qsw_sd            =   0.0000000000000E+00
(PID.TID 0000.0001) %MON extforcing_qsw_del2          =   0.0000000000000E+00
(PID.TID 0000.0001) %MON extforcing_empmr_max         =   0.0000000000000E+00
(PID.TID 0000.0001) %MON extforcing_empmr_min         =   0.0000000000000E+00
(PID.TID 0000.0001) %MON extforcing_empmr_mean        =   0.0000000000000E+00
(PID.TID 0000.0001) %MON extforcing_empmr_sd          =   0.0000000000000E+00
(PID.TID 0000.0001) %MON extforcing_empmr_del2        =   0.0000000000000E+00
(PID.TID 0000.0001) %MON extforcing_fu_max            =   3.0728422999382E-01
(PID.TID 0000.0001) %MON extforcing_fu_min            =  -2.2650160988172E-01
(PID.TID 0000.0001) %MON extforcing_fu_mean           =   1.7819140795553E-02
(PID.TID 0000.0001) %MON extforcing_fu_sd             =   9.3044945573839E-02
(PID.TID 0000.0001) %MON extforcing_fu_del2           =   8.0401557684448E-03
(PID.TID 0000.0001) %MON extforcing_fv_max            =   1.9021158044537E-01
(PID.TID 0000.0001) %MON extforcing_fv_min            =  -1.9670718312263E-01
(PID.TID 0000.0001) %MON extforcing_fv_mean           =  -7.2375816408993E-03
(PID.TID 0000.0001) %MON extforcing_fv_sd             =   4.4424183443592E-02
(PID.TID 0000.0001) %MON extforcing_fv_del2           =   4.9947300949647E-03
(PID.TID 0000.0001) %MON advcfl_uvel_max              =   2.3111867603445E-02
(PID.TID 0000.0001) %MON advcfl_vvel_max              =   1.5130891414537E-02
(PID.TID 0000.0001) %MON advcfl_wvel_max              =   7.7071134977072E-02
(PID.TID 0000.0001) %MON advcfl_W_hf_max              =   7.1120813911072E-02
(PID.TID 0000.0001) %MON pe_b_mean                    =   2.8930163413185E-04
(PID.TID 0000.0001) %MON ke_max                       =   1.4470788838280E-02
(PID.TID 0000.0001) %MON ke_mean                      =   1.7060005953319E-04
(PID.TID 0000.0001) %MON ke_vol                       =   1.3226782436723E+18
(PID.TID 0000.0001) %MON vort_r_min                   =  -4.7368353325217E-07
(PID.TID 0000.0001) %MON vort_r_max                   =   3.8342283965777E-07
(PID.TID 0000.0001) %MON vort_a_mean                  =  -2.5205769057048E-05
(PID.TID 0000.0001) %MON vort_a_sd                    =   7.3403549913587E-05
(PID.TID 0000.0001) %MON vort_p_mean                  =  -3.1758669133625E-05
(PID.TID 0000.0001) %MON vort_p_sd                    =   1.3126391991655E-04
(PID.TID 0000.0001) %MON surfExpan_theta_mean         =   1.4373373761322E-05
(PID.TID 0000.0001) %MON surfExpan_salt_mean          =   2.9541904606346E-07
(PID.TID 0000.0001) // =======================================================
(PID.TID 0000.0001) // End MONITOR dynamic field statistics
(PID.TID 0000.0001) // =======================================================
time,SST,SSS,fu,fv,Q,E-P,i0,i1,a,b =   4.1040E+06 -5.0286E-01  3.4434E+01 -1.5498E-02 -1.6214E-02  2.3839E+02  0.0000E+00     2     3  8.3333E-02  9.1667E-01
time,fu0,fu1,fu =   4.1040E+06 -1.4435E-02 -2.7199E-02 -1.5498E-02  8.333333333333333E-02  9.166666666666666E-01
 cg2d: Sum(rhs),rhsMax =   3.56757678954267E-12  9.74175932322258E+00
(PID.TID 0000.0001)                    cg2d_init_res =    2.78515962434697E-01
(PID.TID 0000.0001)                       cg2d_iters =    24
(PID.TID 0000.0001)                         cg2d_res =    6.46290078511084E-14
(PID.TID 0000.0001) // =======================================================
(PID.TID 0000.0001) // Begin MONITOR dynamic field statistics
(PID.TID 0000.0001) // =======================================================
(PID.TID 0000.0001) %MON time_tsnumber                =                    96
(PID.TID 0000.0001) %MON time_secondsf                =   4.1472000000000E+06
(PID.TID 0000.0001) %MON dynstat_eta_max              =   1.1573263676631E+00
(PID.TID 0000.0001) %MON dynstat_eta_min              =  -1.5330565711178E+00
(PID.TID 0000.0001) %MON dynstat_eta_mean             =  -1.9901419348002E-15
(PID.TID 0000.0001) %MON dynstat_eta_sd               =   4.7754794642968E-01
(PID.TID 0000.0001) %MON dynstat_eta_del2             =   2.6491855173702E-02
(PID.TID 0000.0001) %MON dynstat_uvel_max             =   1.2692018332165E-01
(PID.TID 0000.0001) %MON dynstat_uvel_min             =  -1.3055193843349E-01
(PID.TID 0000.0001) %MON dynstat_uvel_mean            =   1.2618577938387E-03
(PID.TID 0000.0001) %MON dynstat_uvel_sd              =   1.3301269423564E-02
(PID.TID 0000.0001) %MON dynstat_uvel_del2            =   3.3047710440508E-03
(PID.TID 0000.0001) %MON dynstat_vvel_max             =   1.5459073207447E-01
(PID.TID 0000.0001) %MON dynstat_vvel_min             =  -1.3038035025961E-01
(PID.TID 0000.0001) %MON dynstat_vvel_mean            =   2.1021893275344E-05
(PID.TID 0000.0001) %MON dynstat_vvel_sd              =   1.4158997119613E-02
(PID.TID 0000.0001) %MON dynstat_vvel_del2            =   3.3909097592911E-03
(PID.TID 0000.0001) %MON dynstat_wvel_max             =   1.5643893182181E-04
(PID.TID 0000.0001) %MON dynstat_wvel_min             =  -1.7183293786512E-04
(PID.TID 0000.0001) %MON dynstat_wvel_mean            =  -1.3316030579885E-22
(PID.TID 0000.0001) %MON dynstat_wvel_sd              =   1.8911157301240E-05
(PID.TID 0000.0001) %MON dynstat_wvel_del2            =   6.2936887540931E-06
(PID.TID 0000.0001) %MON dynstat_theta_max            =   3.0209364955494E+01
(PID.TID 0000.0001) %MON dynstat_theta_min            =  -2.0162151911448E+00
(PID.TID 0000.0001) %MON dynstat_theta_mean           =   3.5879014863414E+00
(PID.TID 0000.0001) %MON dynstat_theta_sd             =   4.3397169493175E+00
(PID.TID 0000.0001) %MON dynstat_theta_del2           =   1.3988469082219E-01
(PID.TID 0000.0001) %MON dynstat_salt_max             =   3.7385387594493E+01
(PID.TID 0000.0001) %MON dynstat_salt_min             =   2.9888739615161E+01
(PID.TID 0000.0001) %MON dynstat_salt_mean            =   3.4715952186477E+01
(PID.TID 0000.0001) %MON dynstat_salt_sd              =   2.9546600027441E-01
(PID.TID 0000.0001) %MON dynstat_salt_del2            =   2.5389992139637E-02
(PID.TID 0000.0001) %MON dynstat_sst_max              =   3.0209364955494E+01
(PID.TID 0000.0001) %MON dynstat_sst_min              =  -1.9311062460082E+00
(PID.TID 0000.0001) %MON dynstat_sst_mean             =   1.8655407091720E+01
(PID.TID 0000.0001) %MON dynstat_sst_sd               =   8.9374155808330E+00
(PID.TID 0000.0001) %MON dynstat_sst_del2             =   2.6799164441410E-01
(PID.TID 0000.0001) %MON dynstat_sss_max              =   3.7385386633396E+01
(PID.TID 0000.0001) %MON dynstat_sss_min              =   2.9888739615161E+01
(PID.TID 0000.0001) %MON dynstat_sss_mean             =   3.4837874757214E+01
(PID.TID 0000.0001) %MON dynstat_sss_sd               =   9.5613673864618E-01
(PID.TID 0000.0001) %MON dynstat_sss_del2             =   7.8520747763072E-02
(PID.TID 0000.0001) %MON extforcing_qnet_max          =   3.5145686086019E+02
(PID.TID 0000.0001) %MON extforcing_qnet_min          =  -1.7208577092489E+02
(PID.TID 0000.0001) %MON extforcing_qnet_mean         =  -1.3406902229877E+01
(PID.TID 0000.0001) %MON extforcing_qnet_sd           =   7.6056148434726E+01
(PID.TID 0000.0001) %MON extforcing_qnet_del2         =   8.4214448847354E+00
(PID.TID 0000.0001) %MON extforcing_qsw_max           =   0.0000000000000E+00
(PID.TID 0000.0001) %MON extforcing_qsw_min           =   0.0000000000000E+00
(PID.TID 0000.0001) %MON extforcing_qsw_mean          =   0.0000000000000E+00
(PID.TID 0000.0001) %MON extforcing_qsw_sd            =   0.0000000000000E+00
(PID.TID 0000.0001) %MON extforcing_qsw_del2          =   0.0000000000000E+00
(PID.TID 0000.0001) %MON extforcing_empmr_max         =   0.0000000000000E+00
(PID.TID 0000.0001) %MON extforcing_empmr_min         =   0.0000000000000E+00
(PID.TID 0000.0001) %MON extforcing_empmr_mean        =   0.0000000000000E+00
(PID.TID 0000.0001) %MON extforcing_empmr_sd          =   0.0000000000000E+00
(PID.TID 0000.0001) %MON extforcing_empmr_del2        =   0.0000000000000E+00
(PID.TID 0000.0001) %MON extforcing_fu_max            =   3.0794640630484E-01
(PID.TID 0000.0001) %MON extforcing_fu_min            =  -2.2919392461578E-01
(PID.TID 0000.0001) %MON extforcing_fu_mean           =   1.7866240590282E-02
(PID.TID 0000.0001) %MON extforcing_fu_sd             =   9.3066134907514E-02
(PID.TID 0000.0001) %MON extforcing_fu_del2           =   8.0243493009621E-03
(PID.TID 0000.0001) %MON extforcing_fv_max            =   1.8736823430906E-01
(PID.TID 0000.0001) %MON extforcing_fv_min            =  -1.9596416503191E-01
(PID.TID 0000.0001) %MON extforcing_fv_mean           =  -7.2427958158840E-03
(PID.TID 0000.0001) %MON extforcing_fv_sd             =   4.4276565345964E-02
(PID.TID 0000.0001) %MON extforcing_fv_del2           =   4.9639875227901E-03
(PID.TID 0000.0001) %MON advcfl_uvel_max              =   2.4195299640323E-02
(PID.TID 0000.0001) %MON advcfl_vvel_max              =   1.5017249952403E-02
(PID.TID 0000.0001) %MON advcfl_wvel_max              =   7.0893696496125E-02
(PID.TID 0000.0001) %MON advcfl_W_hf_max              =   6.6201905243318E-02
(PID.TID 0000.0001) %MON pe_b_mean                    =   2.9182007439570E-04
(PID.TID 0000.0001) %MON ke_max                       =   1.4330280788421E-02
(PID.TID 0000.0001) %MON ke_mean                      =   1.7110574677154E-04
(PID.TID 0000.0001) %MON ke_vol                       =   1.3226782436723E+18
(PID.TID 0000.0001) %MON vort_r_min                   =  -4.7394421710251E-07
(PID.TID 0000.0001) %MON vort_r_max                   =   3.8486719454792E-07
(PID.TID 0000.0001) %MON vort_a_mean                  =  -2.5205769050123E-05
(PID.TID 0000.0001) %MON vort_a_sd                    =   7.3403535670707E-05
(PID.TID 0000.0001) %MON vort_p_mean                  =  -3.1758669124899E-05
(PID.TID 0000.0001) %MON vort_p_sd                    =   1.3126388885205E-04
(PID.TID 0000.0001) %MON surfExpan_theta_mean         =   1.4366073192438E-05
(PID.TID 0000.0001) %MON surfExpan_salt_mean          =   3.2894591724985E-07
(PID.TID 0000.0001) // =======================================================
(PID.TID 0000.0001) // End MONITOR dynamic field statistics
(PID.TID 0000.0001) // =======================================================
time,SST,SSS,fu,fv,Q,E-P,i0,i1,a,b =   4.1472E+06 -4.9706E-01  3.4437E+01 -1.5711E-02 -1.5930E-02  2.3797E+02  0.0000E+00     2     3  1.0000E-01  9.0000E-01
time,fu0,fu1,fu =   4.1472E+06 -1.4435E-02 -2.7199E-02 -1.5711E-02  1.000000000000000E-01  9.000000000000000E-01
 cg2d: Sum(rhs),rhsMax =   2.97955410344386E-12  9.97004089121583E+00
(PID.TID 0000.0001)                    cg2d_init_res =    2.62170548498913E-01
(PID.TID 0000.0001)                       cg2d_iters =    24
(PID.TID 0000.0001)                         cg2d_res =    6.30073945074533E-14
(PID.TID 0000.0001) // =======================================================
(PID.TID 0000.0001) // Begin MONITOR dynamic field statistics
(PID.TID 0000.0001) // =======================================================
(PID.TID 0000.0001) %MON time_tsnumber                =                    97
(PID.TID 0000.0001) %MON time_secondsf                =   4.1904000000000E+06
(PID.TID 0000.0001) %MON dynstat_eta_max              =   1.1841669789741E+00
(PID.TID 0000.0001) %MON dynstat_eta_min              =  -1.5298958984064E+00
(PID.TID 0000.0001) %MON dynstat_eta_mean             =  -1.9604328325707E-15
(PID.TID 0000.0001) %MON dynstat_eta_sd               =   4.7961520180987E-01
(PID.TID 0000.0001) %MON dynstat_eta_del2             =   2.6603819091651E-02
(PID.TID 0000.0001) %MON dynstat_uvel_max             =   1.3162096661814E-01
(PID.TID 0000.0001) %MON dynstat_uvel_min             =  -1.3036915800467E-01
(PID.TID 0000.0001) %MON dynstat_uvel_mean            =   1.2186714854876E-03
(PID.TID 0000.0001) %MON dynstat_uvel_sd              =   1.3388660177866E-02
(PID.TID 0000.0001) %MON dynstat_uvel_del2            =   3.3030445384918E-03
(PID.TID 0000.0001) %MON dynstat_vvel_max             =   1.5321937672159E-01
(PID.TID 0000.0001) %MON dynstat_vvel_min             =  -1.3196059495798E-01
(PID.TID 0000.0001) %MON dynstat_vvel_mean            =   1.0185824986903E-04
(PID.TID 0000.0001) %MON dynstat_vvel_sd              =   1.4146703967938E-02
(PID.TID 0000.0001) %MON dynstat_vvel_del2            =   3.3891531501067E-03
(PID.TID 0000.0001) %MON dynstat_wvel_max             =   1.5340770258099E-04
(PID.TID 0000.0001) %MON dynstat_wvel_min             =  -1.7609965250279E-04
(PID.TID 0000.0001) %MON dynstat_wvel_mean            =  -4.7465094791576E-22
(PID.TID 0000.0001) %MON dynstat_wvel_sd              =   1.8868384723091E-05
(PID.TID 0000.0001) %MON dynstat_wvel_del2            =   6.2501750545443E-06
(PID.TID 0000.0001) %MON dynstat_theta_max            =   3.0258988614355E+01
(PID.TID 0000.0001) %MON dynstat_theta_min            =  -2.0148908914395E+00
(PID.TID 0000.0001) %MON dynstat_theta_mean           =   3.5877764346108E+00
(PID.TID 0000.0001) %MON dynstat_theta_sd             =   4.3394227563293E+00
(PID.TID 0000.0001) %MON dynstat_theta_del2           =   1.3986788879884E-01
(PID.TID 0000.0001) %MON dynstat_salt_max             =   3.7384925862993E+01
(PID.TID 0000.0001) %MON dynstat_salt_min             =   2.9888958382897E+01
(PID.TID 0000.0001) %MON dynstat_salt_mean            =   3.4715948679584E+01
(PID.TID 0000.0001) %MON dynstat_salt_sd              =   2.9546666997642E-01
(PID.TID 0000.0001) %MON dynstat_salt_del2            =   2.5369612990948E-02
(PID.TID 0000.0001) %MON dynstat_sst_max              =   3.0258988614355E+01
(PID.TID 0000.0001) %MON dynstat_sst_min              =  -1.9304195030598E+00
(PID.TID 0000.0001) %MON dynstat_sst_mean             =   1.8657565366671E+01
(PID.TID 0000.0001) %MON dynstat_sst_sd               =   8.9375043429238E+00
(PID.TID 0000.0001) %MON dynstat_sst_del2             =   2.6779295012287E-01
(PID.TID 0000.0001) %MON dynstat_sss_max              =   3.7384924941021E+01
(PID.TID 0000.0001) %MON dynstat_sss_min              =   2.9888958382897E+01
(PID.TID 0000.0001) %MON dynstat_sss_mean             =   3.4837786577714E+01
(PID.TID 0000.0001) %MON dynstat_sss_sd               =   9.5605079238777E-01
(PID.TID 0000.0001) %MON dynstat_sss_del2             =   7.8441053121025E-02
(PID.TID 0000.0001) %MON extforcing_qnet_max          =   3.5005778503418E+02
(PID.TID 0000.0001) %MON extforcing_qnet_min          =  -1.7193613128662E+02
(PID.TID 0000.0001) %MON extforcing_qnet_mean         =  -1.3295232480064E+01
(PID.TID 0000.0001) %MON extforcing_qnet_sd           =   7.5356710185275E+01
(PID.TID 0000.0001) %MON extforcing_qnet_del2         =   8.3916233786239E+00
(PID.TID 0000.0001) %MON extforcing_qsw_max           =   0.0000000000000E+00
(PID.TID 0000.0001) %MON extforcing_qsw_min           =   0.0000000000000E+00
(PID.TID 0000.0001) %MON extforcing_qsw_mean          =   0.0000000000000E+00
(PID.TID 0000.0001) %MON extforcing_qsw_sd            =   0.0000000000000E+00
(PID.TID 0000.0001) %MON extforcing_qsw_del2          =   0.0000000000000E+00
(PID.TID 0000.0001) %MON extforcing_empmr_max         =   0.0000000000000E+00
(PID.TID 0000.0001) %MON extforcing_empmr_min         =   0.0000000000000E+00
(PID.TID 0000.0001) %MON extforcing_empmr_mean        =   0.0000000000000E+00
(PID.TID 0000.0001) %MON extforcing_empmr_sd          =   0.0000000000000E+00
(PID.TID 0000.0001) %MON extforcing_empmr_del2        =   0.0000000000000E+00
(PID.TID 0000.0001) %MON extforcing_fu_max            =   3.0860858261585E-01
(PID.TID 0000.0001) %MON extforcing_fu_min            =  -2.3188623934984E-01
(PID.TID 0000.0001) %MON extforcing_fu_mean           =   1.7913340385011E-02
(PID.TID 0000.0001) %MON extforcing_fu_sd             =   9.3092736930720E-02
(PID.TID 0000.0001) %MON extforcing_fu_del2           =   8.0107295317272E-03
(PID.TID 0000.0001) %MON extforcing_fv_max            =   1.8452488817275E-01
(PID.TID 0000.0001) %MON extforcing_fv_min            =  -1.9522114694119E-01
(PID.TID 0000.0001) %MON extforcing_fv_mean           =  -7.2480099908687E-03
(PID.TID 0000.0001) %MON extforcing_fv_sd             =   4.4132733305549E-02
(PID.TID 0000.0001) %MON extforcing_fv_del2           =   4.9336087311549E-03
(PID.TID 0000.0001) %MON advcfl_uvel_max              =   2.5143273897627E-02
(PID.TID 0000.0001) %MON advcfl_vvel_max              =   1.4884033776819E-02
(PID.TID 0000.0001) %MON advcfl_wvel_max              =   6.3847158091207E-02
(PID.TID 0000.0001) %MON advcfl_W_hf_max              =   6.7861839396305E-02
(PID.TID 0000.0001) %MON pe_b_mean                    =   2.9435206039869E-04
(PID.TID 0000.0001) %MON ke_max                       =   1.4181847972079E-02
(PID.TID 0000.0001) %MON ke_mean                      =   1.7196498915882E-04
(PID.TID 0000.0001) %MON ke_vol                       =   1.3226782436723E+18
(PID.TID 0000.0001) %MON vort_r_min                   =  -4.7371374759013E-07
(PID.TID 0000.0001) %MON vort_r_max                   =   3.8620841616016E-07
(PID.TID 0000.0001) %MON vort_a_mean                  =  -2.5205769044287E-05
(PID.TID 0000.0001) %MON vort_a_sd                    =   7.3403521884826E-05
(PID.TID 0000.0001) %MON vort_p_mean                  =  -3.1758669117547E-05
(PID.TID 0000.0001) %MON vort_p_sd                    =   1.3126386623214E-04
(PID.TID 0000.0001) %MON surfExpan_theta_mean         =   1.4274538865701E-05
(PID.TID 0000.0001) %MON surfExpan_salt_mean          =   3.5581306529191E-07
(PID.TID 0000.0001) // =======================================================
(PID.TID 0000.0001) // End MONITOR dynamic field statistics
(PID.TID 0000.0001) // =======================================================
time,SST,SSS,fu,fv,Q,E-P,i0,i1,a,b =   4.1904E+06 -4.9126E-01  3.4440E+01 -1.5924E-02 -1.5646E-02  2.3755E+02  0.0000E+00     2     3  1.1667E-01  8.8333E-01
time,fu0,fu1,fu =   4.1904E+06 -1.4435E-02 -2.7199E-02 -1.5924E-02  1.166666666666667E-01  8.833333333333333E-01
 cg2d: Sum(rhs),rhsMax =   2.98856772662504E-12  1.01269753243185E+01
(PID.TID 0000.0001)                    cg2d_init_res =    2.49331335622752E-01
(PID.TID 0000.0001)                       cg2d_iters =    24
(PID.TID 0000.0001)                         cg2d_res =    6.12877068126017E-14
(PID.TID 0000.0001) // =======================================================
(PID.TID 0000.0001) // Begin MONITOR dynamic field statistics
(PID.TID 0000.0001) // =======================================================
(PID.TID 0000.0001) %MON time_tsnumber                =                    98
(PID.TID 0000.0001) %MON time_secondsf                =   4.2336000000000E+06
(PID.TID 0000.0001) %MON dynstat_eta_max              =   1.2026534548206E+00
(PID.TID 0000.0001) %MON dynstat_eta_min              =  -1.5244244800771E+00
(PID.TID 0000.0001) %MON dynstat_eta_mean             =  -1.9810926512204E-15
(PID.TID 0000.0001) %MON dynstat_eta_sd               =   4.8166788556198E-01
(PID.TID 0000.0001) %MON dynstat_eta_del2             =   2.6695863135049E-02
(PID.TID 0000.0001) %MON dynstat_uvel_max             =   1.4106887268250E-01
(PID.TID 0000.0001) %MON dynstat_uvel_min             =  -1.3018059180932E-01
(PID.TID 0000.0001) %MON dynstat_uvel_mean            =   1.1802755236423E-03
(PID.TID 0000.0001) %MON dynstat_uvel_sd              =   1.3507284269522E-02
(PID.TID 0000.0001) %MON dynstat_uvel_del2            =   3.3034028284206E-03
(PID.TID 0000.0001) %MON dynstat_vvel_max             =   1.5164864829124E-01
(PID.TID 0000.0001) %MON dynstat_vvel_min             =  -1.3272446928628E-01
(PID.TID 0000.0001) %MON dynstat_vvel_mean            =   1.8634382407553E-04
(PID.TID 0000.0001) %MON dynstat_vvel_sd              =   1.4128825048438E-02
(PID.TID 0000.0001) %MON dynstat_vvel_del2            =   3.3870461475509E-03
(PID.TID 0000.0001) %MON dynstat_wvel_max             =   1.5009182577840E-04
(PID.TID 0000.0001) %MON dynstat_wvel_min             =  -1.8023118846027E-04
(PID.TID 0000.0001) %MON dynstat_wvel_mean            =  -2.5595312245446E-22
(PID.TID 0000.0001) %MON dynstat_wvel_sd              =   1.8806784916882E-05
(PID.TID 0000.0001) %MON dynstat_wvel_del2            =   6.2097824701824E-06
(PID.TID 0000.0001) %MON dynstat_theta_max            =   3.0294267291809E+01
(PID.TID 0000.0001) %MON dynstat_theta_min            =  -2.0135882776409E+00
(PID.TID 0000.0001) %MON dynstat_theta_mean           =   3.5876525916214E+00
(PID.TID 0000.0001) %MON dynstat_theta_sd             =   4.3391312053569E+00
(PID.TID 0000.0001) %MON dynstat_theta_del2           =   1.3984211795033E-01
(PID.TID 0000.0001) %MON dynstat_salt_max             =   3.7384477171331E+01
(PID.TID 0000.0001) %MON dynstat_salt_min             =   2.9889121024807E+01
(PID.TID 0000.0001) %MON dynstat_salt_mean            =   3.4715944916338E+01
(PID.TID 0000.0001) %MON dynstat_salt_sd              =   2.9546549284712E-01
(PID.TID 0000.0001) %MON dynstat_salt_del2            =   2.5347062470792E-02
(PID.TID 0000.0001) %MON dynstat_sst_max              =   3.0294267291809E+01
(PID.TID 0000.0001) %MON dynstat_sst_min              =  -1.9296002861141E+00
(PID.TID 0000.0001) %MON dynstat_sst_mean             =   1.8659844587523E+01
(PID.TID 0000.0001) %MON dynstat_sst_sd               =   8.9377050511133E+00
(PID.TID 0000.0001) %MON dynstat_sst_del2             =   2.6755996054089E-01
(PID.TID 0000.0001) %MON dynstat_sss_max              =   3.7384476282365E+01
(PID.TID 0000.0001) %MON dynstat_sss_min              =   2.9889121024807E+01
(PID.TID 0000.0001) %MON dynstat_sss_mean             =   3.4837708206285E+01
(PID.TID 0000.0001) %MON dynstat_sss_sd               =   9.5597378727082E-01
(PID.TID 0000.0001) %MON dynstat_sss_del2             =   7.8351282579034E-02
(PID.TID 0000.0001) %MON extforcing_qnet_max          =   3.4865870920817E+02
(PID.TID 0000.0001) %MON extforcing_qnet_min          =  -1.7178649164836E+02
(PID.TID 0000.0001) %MON extforcing_qnet_mean         =  -1.3183562730250E+01
(PID.TID 0000.0001) %MON extforcing_qnet_sd           =   7.4660647515271E+01
(PID.TID 0000.0001) %MON extforcing_qnet_del2         =   8.3619329009166E+00
(PID.TID 0000.0001) %MON extforcing_qsw_max           =   0.0000000000000E+00
(PID.TID 0000.0001) %MON extforcing_qsw_min           =   0.0000000000000E+00
(PID.TID 0000.0001) %MON extforcing_qsw_mean          =   0.0000000000000E+00
(PID.TID 0000.0001) %MON extforcing_qsw_sd            =   0.0000000000000E+00
(PID.TID 0000.0001) %MON extforcing_qsw_del2          =   0.0000000000000E+00
(PID.TID 0000.0001) %MON extforcing_empmr_max         =   0.0000000000000E+00
(PID.TID 0000.0001) %MON extforcing_empmr_min         =   0.0000000000000E+00
(PID.TID 0000.0001) %MON extforcing_empmr_mean        =   0.0000000000000E+00
(PID.TID 0000.0001) %MON extforcing_empmr_sd          =   0.0000000000000E+00
(PID.TID 0000.0001) %MON extforcing_empmr_del2        =   0.0000000000000E+00
(PID.TID 0000.0001) %MON extforcing_fu_max            =   3.0927075892687E-01
(PID.TID 0000.0001) %MON extforcing_fu_min            =  -2.3457855408390E-01
(PID.TID 0000.0001) %MON extforcing_fu_mean           =   1.7960440179740E-02
(PID.TID 0000.0001) %MON extforcing_fu_sd             =   9.3124747004889E-02
(PID.TID 0000.0001) %MON extforcing_fu_del2           =   7.9994392501212E-03
(PID.TID 0000.0001) %MON extforcing_fv_max            =   1.8168154203643E-01
(PID.TID 0000.0001) %MON extforcing_fv_min            =  -1.9447812885046E-01
(PID.TID 0000.0001) %MON extforcing_fv_mean           =  -7.2532241658535E-03
(PID.TID 0000.0001) %MON extforcing_fv_sd             =   4.3992724457346E-02
(PID.TID 0000.0001) %MON extforcing_fv_del2           =   4.9041989793222E-03
(PID.TID 0000.0001) %MON advcfl_uvel_max              =   2.5933602413936E-02
(PID.TID 0000.0001) %MON advcfl_vvel_max              =   1.4731450105539E-02
(PID.TID 0000.0001) %MON advcfl_wvel_max              =   5.5674150804673E-02
(PID.TID 0000.0001) %MON advcfl_W_hf_max              =   6.8958883303455E-02
(PID.TID 0000.0001) %MON pe_b_mean                    =   2.9687702065373E-04
(PID.TID 0000.0001) %MON ke_max                       =   1.4025328023458E-02
(PID.TID 0000.0001) %MON ke_mean                      =   1.7315661190874E-04
(PID.TID 0000.0001) %MON ke_vol                       =   1.3226782436723E+18
(PID.TID 0000.0001) %MON vort_r_min                   =  -4.7306609262255E-07
(PID.TID 0000.0001) %MON vort_r_max                   =   3.8745442057393E-07
(PID.TID 0000.0001) %MON vort_a_mean                  =  -2.5205769039791E-05
(PID.TID 0000.0001) %MON vort_a_sd                    =   7.3403508804460E-05
(PID.TID 0000.0001) %MON vort_p_mean                  =  -3.1758669111881E-05
(PID.TID 0000.0001) %MON vort_p_sd                    =   1.3126385239852E-04
(PID.TID 0000.0001) %MON surfExpan_theta_mean         =   1.4105400479532E-05
(PID.TID 0000.0001) %MON surfExpan_salt_mean          =   3.7506716759726E-07
(PID.TID 0000.0001) // =======================================================
(PID.TID 0000.0001) // End MONITOR dynamic field statistics
(PID.TID 0000.0001) // =======================================================
time,SST,SSS,fu,fv,Q,E-P,i0,i1,a,b =   4.2336E+06 -4.8546E-01  3.4442E+01 -1.6137E-02 -1.5361E-02  2.3714E+02  0.0000E+00     2     3  1.3333E-01  8.6667E-01
time,fu0,fu1,fu =   4.2336E+06 -1.4435E-02 -2.7199E-02 -1.6137E-02  1.333333333333333E-01  8.666666666666667E-01
 cg2d: Sum(rhs),rhsMax =   2.77528000580674E-12  1.02123017105532E+01
(PID.TID 0000.0001)                    cg2d_init_res =    2.40170195357281E-01
(PID.TID 0000.0001)                       cg2d_iters =    24
(PID.TID 0000.0001)                         cg2d_res =    5.96218409091608E-14
(PID.TID 0000.0001) // =======================================================
(PID.TID 0000.0001) // Begin MONITOR dynamic field statistics
(PID.TID 0000.0001) // =======================================================
(PID.TID 0000.0001) %MON time_tsnumber                =                    99
(PID.TID 0000.0001) %MON time_secondsf                =   4.2768000000000E+06
(PID.TID 0000.0001) %MON dynstat_eta_max              =   1.2127540667778E+00
(PID.TID 0000.0001) %MON dynstat_eta_min              =  -1.5234065220465E+00
(PID.TID 0000.0001) %MON dynstat_eta_mean             =  -1.8850740214617E-15
(PID.TID 0000.0001) %MON dynstat_eta_sd               =   4.8369234276371E-01
(PID.TID 0000.0001) %MON dynstat_eta_del2             =   2.6757348739343E-02
(PID.TID 0000.0001) %MON dynstat_uvel_max             =   1.5017021226092E-01
(PID.TID 0000.0001) %MON dynstat_uvel_min             =  -1.2998475825290E-01
(PID.TID 0000.0001) %MON dynstat_uvel_mean            =   1.1474283762319E-03
(PID.TID 0000.0001) %MON dynstat_uvel_sd              =   1.3653725346403E-02
(PID.TID 0000.0001) %MON dynstat_uvel_del2            =   3.3061355363216E-03
(PID.TID 0000.0001) %MON dynstat_vvel_max             =   1.4988070562373E-01
(PID.TID 0000.0001) %MON dynstat_vvel_min             =  -1.3267499355445E-01
(PID.TID 0000.0001) %MON dynstat_vvel_mean            =   2.7393583095720E-04
(PID.TID 0000.0001) %MON dynstat_vvel_sd              =   1.4105512909034E-02
(PID.TID 0000.0001) %MON dynstat_vvel_del2            =   3.3866151769219E-03
(PID.TID 0000.0001) %MON dynstat_wvel_max             =   1.4651442239000E-04
(PID.TID 0000.0001) %MON dynstat_wvel_min             =  -1.8543026238242E-04
(PID.TID 0000.0001) %MON dynstat_wvel_mean            =   7.8438542030077E-23
(PID.TID 0000.0001) %MON dynstat_wvel_sd              =   1.8730107496703E-05
(PID.TID 0000.0001) %MON dynstat_wvel_del2            =   6.1722488269058E-06
(PID.TID 0000.0001) %MON dynstat_theta_max            =   3.0314717976097E+01
(PID.TID 0000.0001) %MON dynstat_theta_min            =  -2.0123155227434E+00
(PID.TID 0000.0001) %MON dynstat_theta_mean           =   3.5875307825760E+00
(PID.TID 0000.0001) %MON dynstat_theta_sd             =   4.3388463295552E+00
(PID.TID 0000.0001) %MON dynstat_theta_del2           =   1.3981309851784E-01
(PID.TID 0000.0001) %MON dynstat_salt_max             =   3.7384047907070E+01
(PID.TID 0000.0001) %MON dynstat_salt_min             =   2.9889216785810E+01
(PID.TID 0000.0001) %MON dynstat_salt_mean            =   3.4715940989037E+01
(PID.TID 0000.0001) %MON dynstat_salt_sd              =   2.9546219995770E-01
(PID.TID 0000.0001) %MON dynstat_salt_del2            =   2.5325206046351E-02
(PID.TID 0000.0001) %MON dynstat_sst_max              =   3.0314717976097E+01
(PID.TID 0000.0001) %MON dynstat_sst_min              =  -1.9286746732006E+00
(PID.TID 0000.0001) %MON dynstat_sst_mean             =   1.8662379487740E+01
(PID.TID 0000.0001) %MON dynstat_sst_sd               =   8.9377629055380E+00
(PID.TID 0000.0001) %MON dynstat_sst_del2             =   2.6734686559731E-01
(PID.TID 0000.0001) %MON dynstat_sss_max              =   3.7384047045358E+01
(PID.TID 0000.0001) %MON dynstat_sss_min              =   2.9889216785810E+01
(PID.TID 0000.0001) %MON dynstat_sss_mean             =   3.4837648616520E+01
(PID.TID 0000.0001) %MON dynstat_sss_sd               =   9.5587650908449E-01
(PID.TID 0000.0001) %MON dynstat_sss_del2             =   7.8269800267006E-02
(PID.TID 0000.0001) %MON extforcing_qnet_max          =   3.4725963338216E+02
(PID.TID 0000.0001) %MON extforcing_qnet_min          =  -1.7163685201009E+02
(PID.TID 0000.0001) %MON extforcing_qnet_mean         =  -1.3071892980437E+01
(PID.TID 0000.0001) %MON extforcing_qnet_sd           =   7.3968055720569E+01
(PID.TID 0000.0001) %MON extforcing_qnet_del2         =   8.3327760735114E+00
(PID.TID 0000.0001) %MON extforcing_qsw_max           =   0.0000000000000E+00
(PID.TID 0000.0001) %MON extforcing_qsw_min           =   0.0000000000000E+00
(PID.TID 0000.0001) %MON extforcing_qsw_mean          =   0.0000000000000E+00
(PID.TID 0000.0001) %MON extforcing_qsw_sd            =   0.0000000000000E+00
(PID.TID 0000.0001) %MON extforcing_qsw_del2          =   0.0000000000000E+00
(PID.TID 0000.0001) %MON extforcing_empmr_max         =   0.0000000000000E+00
(PID.TID 0000.0001) %MON extforcing_empmr_min         =   0.0000000000000E+00
(PID.TID 0000.0001) %MON extforcing_empmr_mean        =   0.0000000000000E+00
(PID.TID 0000.0001) %MON extforcing_empmr_sd          =   0.0000000000000E+00
(PID.TID 0000.0001) %MON extforcing_empmr_del2        =   0.0000000000000E+00
(PID.TID 0000.0001) %MON extforcing_fu_max            =   3.0993293523788E-01
(PID.TID 0000.0001) %MON extforcing_fu_min            =  -2.3727086881797E-01
(PID.TID 0000.0001) %MON extforcing_fu_mean           =   1.8007539974469E-02
(PID.TID 0000.0001) %MON extforcing_fu_sd             =   9.3162159555480E-02
(PID.TID 0000.0001) %MON extforcing_fu_del2           =   7.9896741464526E-03
(PID.TID 0000.0001) %MON extforcing_fv_max            =   1.7883819590012E-01
(PID.TID 0000.0001) %MON extforcing_fv_min            =  -1.9373511075974E-01
(PID.TID 0000.0001) %MON extforcing_fv_mean           =  -7.2584383408382E-03
(PID.TID 0000.0001) %MON extforcing_fv_sd             =   4.3856575417137E-02
(PID.TID 0000.0001) %MON extforcing_fv_del2           =   4.8757362191931E-03
(PID.TID 0000.0001) %MON advcfl_uvel_max              =   2.6547839968186E-02
(PID.TID 0000.0001) %MON advcfl_vvel_max              =   1.4559708652586E-02
(PID.TID 0000.0001) %MON advcfl_wvel_max              =   4.6721073477991E-02
(PID.TID 0000.0001) %MON advcfl_W_hf_max              =   6.9455928926472E-02
(PID.TID 0000.0001) %MON pe_b_mean                    =   2.9937782204660E-04
(PID.TID 0000.0001) %MON ke_max                       =   1.3860545500544E-02
(PID.TID 0000.0001) %MON ke_mean                      =   1.7465151232342E-04
(PID.TID 0000.0001) %MON ke_vol                       =   1.3226782436723E+18
(PID.TID 0000.0001) %MON vort_r_min                   =  -4.7208840490792E-07
(PID.TID 0000.0001) %MON vort_r_max                   =   3.8861548874321E-07
(PID.TID 0000.0001) %MON vort_a_mean                  =  -2.5205769036806E-05
(PID.TID 0000.0001) %MON vort_a_sd                    =   7.3403496644858E-05
(PID.TID 0000.0001) %MON vort_p_mean                  =  -3.1758669108120E-05
(PID.TID 0000.0001) %MON vort_p_sd                    =   1.3126384741415E-04
(PID.TID 0000.0001) %MON surfExpan_theta_mean         =   1.3864058357796E-05
(PID.TID 0000.0001) %MON surfExpan_salt_mean          =   3.8584678808555E-07
(PID.TID 0000.0001) // =======================================================
(PID.TID 0000.0001) // End MONITOR dynamic field statistics
(PID.TID 0000.0001) // =======================================================
time,SST,SSS,fu,fv,Q,E-P,i0,i1,a,b =   4.2768E+06 -4.7966E-01  3.4445E+01 -1.6349E-02 -1.5077E-02  2.3672E+02  0.0000E+00     2     3  1.5000E-01  8.5000E-01
time,fu0,fu1,fu =   4.2768E+06 -1.4435E-02 -2.7199E-02 -1.6349E-02  1.500000000000000E-01  8.500000000000000E-01
 cg2d: Sum(rhs),rhsMax =   2.81982076577592E-12  1.02275380128948E+01
(PID.TID 0000.0001)                    cg2d_init_res =    2.34841516059269E-01
(PID.TID 0000.0001)                       cg2d_iters =    24
(PID.TID 0000.0001)                         cg2d_res =    5.81723251790968E-14
(PID.TID 0000.0001) // =======================================================
(PID.TID 0000.0001) // Begin MONITOR dynamic field statistics
(PID.TID 0000.0001) // =======================================================
(PID.TID 0000.0001) %MON time_tsnumber                =                   100
(PID.TID 0000.0001) %MON time_secondsf                =   4.3200000000000E+06
(PID.TID 0000.0001) %MON dynstat_eta_max              =   1.2146457929896E+00
(PID.TID 0000.0001) %MON dynstat_eta_min              =  -1.5316899222727E+00
(PID.TID 0000.0001) %MON dynstat_eta_mean             =  -1.9242356982515E-15
(PID.TID 0000.0001) %MON dynstat_eta_sd               =   4.8567846362102E-01
(PID.TID 0000.0001) %MON dynstat_eta_del2             =   2.6780491576134E-02
(PID.TID 0000.0001) %MON dynstat_uvel_max             =   1.5876037889853E-01
(PID.TID 0000.0001) %MON dynstat_uvel_min             =  -1.2977952784815E-01
(PID.TID 0000.0001) %MON dynstat_uvel_mean            =   1.1206707453243E-03
(PID.TID 0000.0001) %MON dynstat_uvel_sd              =   1.3823541320886E-02
(PID.TID 0000.0001) %MON dynstat_uvel_del2            =   3.3117134820361E-03
(PID.TID 0000.0001) %MON dynstat_vvel_max             =   1.4791782888227E-01
(PID.TID 0000.0001) %MON dynstat_vvel_min             =  -1.3182344257148E-01
(PID.TID 0000.0001) %MON dynstat_vvel_mean            =   3.6394108877747E-04
(PID.TID 0000.0001) %MON dynstat_vvel_sd              =   1.4077309229371E-02
(PID.TID 0000.0001) %MON dynstat_vvel_del2            =   3.3876545813937E-03
(PID.TID 0000.0001) %MON dynstat_wvel_max             =   1.4312068515973E-04
(PID.TID 0000.0001) %MON dynstat_wvel_min             =  -1.9096817134188E-04
(PID.TID 0000.0001) %MON dynstat_wvel_mean            =  -2.2877573595314E-22
(PID.TID 0000.0001) %MON dynstat_wvel_sd              =   1.8642770323391E-05
(PID.TID 0000.0001) %MON dynstat_wvel_del2            =   6.1369860558258E-06
(PID.TID 0000.0001) %MON dynstat_theta_max            =   3.0320149170709E+01
(PID.TID 0000.0001) %MON dynstat_theta_min            =  -2.0110792046853E+00
(PID.TID 0000.0001) %MON dynstat_theta_mean           =   3.5874117470613E+00
(PID.TID 0000.0001) %MON dynstat_theta_sd             =   4.3385722508403E+00
(PID.TID 0000.0001) %MON dynstat_theta_del2           =   1.3978440119907E-01
(PID.TID 0000.0001) %MON dynstat_salt_max             =   3.7383643563246E+01
(PID.TID 0000.0001) %MON dynstat_salt_min             =   2.9889237116195E+01
(PID.TID 0000.0001) %MON dynstat_salt_mean            =   3.4715936998137E+01
(PID.TID 0000.0001) %MON dynstat_salt_sd              =   2.9545659755235E-01
(PID.TID 0000.0001) %MON dynstat_salt_del2            =   2.5301849513136E-02
(PID.TID 0000.0001) %MON dynstat_sst_max              =   3.0320149170709E+01
(PID.TID 0000.0001) %MON dynstat_sst_min              =  -1.9276716149792E+00
(PID.TID 0000.0001) %MON dynstat_sst_mean             =   1.8665016189626E+01
(PID.TID 0000.0001) %MON dynstat_sst_sd               =   8.9380140233883E+00
(PID.TID 0000.0001) %MON dynstat_sst_del2             =   2.6714754791733E-01
(PID.TID 0000.0001) %MON dynstat_sss_max              =   3.7383642723616E+01
(PID.TID 0000.0001) %MON dynstat_sss_min              =   2.9889237116195E+01
(PID.TID 0000.0001) %MON dynstat_sss_mean             =   3.4837596660103E+01
(PID.TID 0000.0001) %MON dynstat_sss_sd               =   9.5577245932602E-01
(PID.TID 0000.0001) %MON dynstat_sss_del2             =   7.8189719871926E-02
(PID.TID 0000.0001) %MON extforcing_qnet_max          =   3.4586055755615E+02
(PID.TID 0000.0001) %MON extforcing_qnet_min          =  -1.7148721237183E+02
(PID.TID 0000.0001) %MON extforcing_qnet_mean         =  -1.2960223230624E+01
(PID.TID 0000.0001) %MON extforcing_qnet_sd           =   7.3279033215459E+01
(PID.TID 0000.0001) %MON extforcing_qnet_del2         =   8.3041067446708E+00
(PID.TID 0000.0001) %MON extforcing_qsw_max           =   0.0000000000000E+00
(PID.TID 0000.0001) %MON extforcing_qsw_min           =   0.0000000000000E+00
(PID.TID 0000.0001) %MON extforcing_qsw_mean          =   0.0000000000000E+00
(PID.TID 0000.0001) %MON extforcing_qsw_sd            =   0.0000000000000E+00
(PID.TID 0000.0001) %MON extforcing_qsw_del2          =   0.0000000000000E+00
(PID.TID 0000.0001) %MON extforcing_empmr_max         =   0.0000000000000E+00
(PID.TID 0000.0001) %MON extforcing_empmr_min         =   0.0000000000000E+00
(PID.TID 0000.0001) %MON extforcing_empmr_mean        =   0.0000000000000E+00
(PID.TID 0000.0001) %MON extforcing_empmr_sd          =   0.0000000000000E+00
(PID.TID 0000.0001) %MON extforcing_empmr_del2        =   0.0000000000000E+00
(PID.TID 0000.0001) %MON extforcing_fu_max            =   3.1059511154890E-01
(PID.TID 0000.0001) %MON extforcing_fu_min            =  -2.3996318355203E-01
(PID.TID 0000.0001) %MON extforcing_fu_mean           =   1.8054639769199E-02
(PID.TID 0000.0001) %MON extforcing_fu_sd             =   9.3204968076817E-02
(PID.TID 0000.0001) %MON extforcing_fu_del2           =   7.9811861765890E-03
(PID.TID 0000.0001) %MON extforcing_fv_max            =   1.7599484976381E-01
(PID.TID 0000.0001) %MON extforcing_fv_min            =  -1.9299209266901E-01
(PID.TID 0000.0001) %MON extforcing_fv_mean           =  -7.2636525158229E-03
(PID.TID 0000.0001) %MON extforcing_fv_sd             =   4.3724322241012E-02
(PID.TID 0000.0001) %MON extforcing_fv_del2           =   4.8480875404861E-03
(PID.TID 0000.0001) %MON advcfl_uvel_max              =   2.6971701943635E-02
(PID.TID 0000.0001) %MON advcfl_vvel_max              =   1.4369030917531E-02
(PID.TID 0000.0001) %MON advcfl_wvel_max              =   4.7228588429183E-02
(PID.TID 0000.0001) %MON advcfl_W_hf_max              =   6.9327087062753E-02
(PID.TID 0000.0001) %MON pe_b_mean                    =   3.0184145956177E-04
(PID.TID 0000.0001) %MON ke_max                       =   1.3687331583389E-02
(PID.TID 0000.0001) %MON ke_mean                      =   1.7641273832574E-04
(PID.TID 0000.0001) %MON ke_vol                       =   1.3226782436723E+18
(PID.TID 0000.0001) %MON vort_r_min                   =  -4.7087827576584E-07
(PID.TID 0000.0001) %MON vort_r_max                   =   3.8970408304885E-07
(PID.TID 0000.0001) %MON vort_a_mean                  =  -2.5205769035426E-05
(PID.TID 0000.0001) %MON vort_a_sd                    =   7.3403485582720E-05
(PID.TID 0000.0001) %MON vort_p_mean                  =  -3.1758669106381E-05
(PID.TID 0000.0001) %MON vort_p_sd                    =   1.3126385100416E-04
(PID.TID 0000.0001) %MON surfExpan_theta_mean         =   1.3557173076588E-05
(PID.TID 0000.0001) %MON surfExpan_salt_mean          =   3.8773385697678E-07
(PID.TID 0000.0001) // =======================================================
(PID.TID 0000.0001) // End MONITOR dynamic field statistics
(PID.TID 0000.0001) // =======================================================
time,SST,SSS,fu,fv,Q,E-P,i0,i1,a,b =   4.3200E+06 -4.7386E-01  3.4447E+01 -1.6562E-02 -1.4793E-02  2.3630E+02  0.0000E+00     2     3  1.6667E-01  8.3333E-01
time,fu0,fu1,fu =   4.3200E+06 -1.4435E-02 -2.7199E-02 -1.6562E-02  1.666666666666667E-01  8.333333333333334E-01
 cg2d: Sum(rhs),rhsMax =   2.69214511794402E-12  1.01758685202733E+01
(PID.TID 0000.0001)                    cg2d_init_res =    2.33422515091006E-01
(PID.TID 0000.0001)                       cg2d_iters =    24
(PID.TID 0000.0001)                         cg2d_res =    5.69700016477223E-14
(PID.TID 0000.0001) // =======================================================
(PID.TID 0000.0001) // Begin MONITOR dynamic field statistics
(PID.TID 0000.0001) // =======================================================
(PID.TID 0000.0001) %MON time_tsnumber                =                   101
(PID.TID 0000.0001) %MON time_secondsf                =   4.3632000000000E+06
(PID.TID 0000.0001) %MON dynstat_eta_max              =   1.2087010096099E+00
(PID.TID 0000.0001) %MON dynstat_eta_min              =  -1.5388360759586E+00
(PID.TID 0000.0001) %MON dynstat_eta_mean             =  -1.6563938849623E-15
(PID.TID 0000.0001) %MON dynstat_eta_sd               =   4.8761990697807E-01
(PID.TID 0000.0001) %MON dynstat_eta_del2             =   2.6772859789327E-02
(PID.TID 0000.0001) %MON dynstat_uvel_max             =   1.6668415308851E-01
(PID.TID 0000.0001) %MON dynstat_uvel_min             =  -1.2956233863044E-01
(PID.TID 0000.0001) %MON dynstat_uvel_mean            =   1.1003331068134E-03
(PID.TID 0000.0001) %MON dynstat_uvel_sd              =   1.4011512129227E-02
(PID.TID 0000.0001) %MON dynstat_uvel_del2            =   3.3205817897900E-03
(PID.TID 0000.0001) %MON dynstat_vvel_max             =   1.4888666889402E-01
(PID.TID 0000.0001) %MON dynstat_vvel_min             =  -1.3018902158853E-01
(PID.TID 0000.0001) %MON dynstat_vvel_mean            =   4.5553711972945E-04
(PID.TID 0000.0001) %MON dynstat_vvel_sd              =   1.4045074676014E-02
(PID.TID 0000.0001) %MON dynstat_vvel_del2            =   3.3906659395207E-03
(PID.TID 0000.0001) %MON dynstat_wvel_max             =   1.4376817480806E-04
(PID.TID 0000.0001) %MON dynstat_wvel_min             =  -1.9617891090772E-04
(PID.TID 0000.0001) %MON dynstat_wvel_mean            =   3.2508787514001E-22
(PID.TID 0000.0001) %MON dynstat_wvel_sd              =   1.8549407715557E-05
(PID.TID 0000.0001) %MON dynstat_wvel_del2            =   6.1042836093693E-06
(PID.TID 0000.0001) %MON dynstat_theta_max            =   3.0310656565826E+01
(PID.TID 0000.0001) %MON dynstat_theta_min            =  -2.0098837385992E+00
(PID.TID 0000.0001) %MON dynstat_theta_mean           =   3.5872961770106E+00
(PID.TID 0000.0001) %MON dynstat_theta_sd             =   4.3383129943972E+00
(PID.TID 0000.0001) %MON dynstat_theta_del2           =   1.3976184775007E-01
(PID.TID 0000.0001) %MON dynstat_salt_max             =   3.7383268512861E+01
(PID.TID 0000.0001) %MON dynstat_salt_min             =   2.9889176323941E+01
(PID.TID 0000.0001) %MON dynstat_salt_mean            =   3.4715933046651E+01
(PID.TID 0000.0001) %MON dynstat_salt_sd              =   2.9544864170375E-01
(PID.TID 0000.0001) %MON dynstat_salt_del2            =   2.5281905499407E-02
(PID.TID 0000.0001) %MON dynstat_sst_max              =   3.0310656565826E+01
(PID.TID 0000.0001) %MON dynstat_sst_min              =  -1.9266213334537E+00
(PID.TID 0000.0001) %MON dynstat_sst_mean             =   1.8667878980751E+01
(PID.TID 0000.0001) %MON dynstat_sst_sd               =   8.9383502732304E+00
(PID.TID 0000.0001) %MON dynstat_sst_del2             =   2.6699786304411E-01
(PID.TID 0000.0001) %MON dynstat_sss_max              =   3.7383267690893E+01
(PID.TID 0000.0001) %MON dynstat_sss_min              =   2.9889176323941E+01
(PID.TID 0000.0001) %MON dynstat_sss_mean             =   3.4837578040231E+01
(PID.TID 0000.0001) %MON dynstat_sss_sd               =   9.5567783806873E-01
(PID.TID 0000.0001) %MON dynstat_sss_del2             =   7.8117547018452E-02
(PID.TID 0000.0001) %MON extforcing_qnet_max          =   3.4446148173014E+02
(PID.TID 0000.0001) %MON extforcing_qnet_min          =  -1.7133757273356E+02
(PID.TID 0000.0001) %MON extforcing_qnet_mean         =  -1.2848553480810E+01
(PID.TID 0000.0001) %MON extforcing_qnet_sd           =   7.2593681633689E+01
(PID.TID 0000.0001) %MON extforcing_qnet_del2         =   8.2765057144678E+00
(PID.TID 0000.0001) %MON extforcing_qsw_max           =   0.0000000000000E+00
(PID.TID 0000.0001) %MON extforcing_qsw_min           =   0.0000000000000E+00
(PID.TID 0000.0001) %MON extforcing_qsw_mean          =   0.0000000000000E+00
(PID.TID 0000.0001) %MON extforcing_qsw_sd            =   0.0000000000000E+00
(PID.TID 0000.0001) %MON extforcing_qsw_del2          =   0.0000000000000E+00
(PID.TID 0000.0001) %MON extforcing_empmr_max         =   0.0000000000000E+00
(PID.TID 0000.0001) %MON extforcing_empmr_min         =   0.0000000000000E+00
(PID.TID 0000.0001) %MON extforcing_empmr_mean        =   0.0000000000000E+00
(PID.TID 0000.0001) %MON extforcing_empmr_sd          =   0.0000000000000E+00
(PID.TID 0000.0001) %MON extforcing_empmr_del2        =   0.0000000000000E+00
(PID.TID 0000.0001) %MON extforcing_fu_max            =   3.1125728785992E-01
(PID.TID 0000.0001) %MON extforcing_fu_min            =  -2.4265549828609E-01
(PID.TID 0000.0001) %MON extforcing_fu_mean           =   1.8101739563928E-02
(PID.TID 0000.0001) %MON extforcing_fu_sd             =   9.3253165137727E-02
(PID.TID 0000.0001) %MON extforcing_fu_del2           =   7.9745313643150E-03
(PID.TID 0000.0001) %MON extforcing_fv_max            =   1.7315150362750E-01
(PID.TID 0000.0001) %MON extforcing_fv_min            =  -1.9224907457829E-01
(PID.TID 0000.0001) %MON extforcing_fv_mean           =  -7.2688666908077E-03
(PID.TID 0000.0001) %MON extforcing_fv_sd             =   4.3596000384561E-02
(PID.TID 0000.0001) %MON extforcing_fv_del2           =   4.8219283636153E-03
(PID.TID 0000.0001) %MON advcfl_uvel_max              =   2.7547524819971E-02
(PID.TID 0000.0001) %MON advcfl_vvel_max              =   1.4463145955511E-02
(PID.TID 0000.0001) %MON advcfl_wvel_max              =   5.1318661460139E-02
(PID.TID 0000.0001) %MON advcfl_W_hf_max              =   6.8558099801136E-02
(PID.TID 0000.0001) %MON pe_b_mean                    =   3.0425943519894E-04
(PID.TID 0000.0001) %MON ke_max                       =   1.3831685111974E-02
(PID.TID 0000.0001) %MON ke_mean                      =   1.7839599928370E-04
(PID.TID 0000.0001) %MON ke_vol                       =   1.3226782436723E+18
(PID.TID 0000.0001) %MON vort_r_min                   =  -4.6954067623813E-07
(PID.TID 0000.0001) %MON vort_r_max                   =   3.9073454344847E-07
(PID.TID 0000.0001) %MON vort_a_mean                  =  -2.5205769035670E-05
(PID.TID 0000.0001) %MON vort_a_sd                    =   7.3403475754405E-05
(PID.TID 0000.0001) %MON vort_p_mean                  =  -3.1758669106689E-05
(PID.TID 0000.0001) %MON vort_p_sd                    =   1.3126386265381E-04
(PID.TID 0000.0001) %MON surfExpan_theta_mean         =   1.3191577880542E-05
(PID.TID 0000.0001) %MON surfExpan_salt_mean          =   3.8070470514291E-07
(PID.TID 0000.0001) // =======================================================
(PID.TID 0000.0001) // End MONITOR dynamic field statistics
(PID.TID 0000.0001) // =======================================================
time,SST,SSS,fu,fv,Q,E-P,i0,i1,a,b =   4.3632E+06 -4.6807E-01  3.4450E+01 -1.6775E-02 -1.4508E-02  2.3588E+02  0.0000E+00     2     3  1.8333E-01  8.1667E-01
time,fu0,fu1,fu =   4.3632E+06 -1.4435E-02 -2.7199E-02 -1.6775E-02  1.833333333333333E-01  8.166666666666667E-01
 cg2d: Sum(rhs),rhsMax =   2.59198218444112E-12  1.00619953092788E+01
(PID.TID 0000.0001)                    cg2d_init_res =    2.35847016161783E-01
(PID.TID 0000.0001)                       cg2d_iters =    24
(PID.TID 0000.0001)                         cg2d_res =    5.53718350837411E-14
(PID.TID 0000.0001) // =======================================================
(PID.TID 0000.0001) // Begin MONITOR dynamic field statistics
(PID.TID 0000.0001) // =======================================================
(PID.TID 0000.0001) %MON time_tsnumber                =                   102
(PID.TID 0000.0001) %MON time_secondsf                =   4.4064000000000E+06
(PID.TID 0000.0001) %MON dynstat_eta_max              =   1.1954699557074E+00
(PID.TID 0000.0001) %MON dynstat_eta_min              =  -1.5448687963429E+00
(PID.TID 0000.0001) %MON dynstat_eta_mean             =  -1.3794037341683E-15
(PID.TID 0000.0001) %MON dynstat_eta_sd               =   4.8951398413391E-01
(PID.TID 0000.0001) %MON dynstat_eta_del2             =   2.6739067447998E-02
(PID.TID 0000.0001) %MON dynstat_uvel_max             =   1.7379888013879E-01
(PID.TID 0000.0001) %MON dynstat_uvel_min             =  -1.2933040876447E-01
(PID.TID 0000.0001) %MON dynstat_uvel_mean            =   1.0865226137402E-03
(PID.TID 0000.0001) %MON dynstat_uvel_sd              =   1.4211948966821E-02
(PID.TID 0000.0001) %MON dynstat_uvel_del2            =   3.3308033991794E-03
(PID.TID 0000.0001) %MON dynstat_vvel_max             =   1.5089464730677E-01
(PID.TID 0000.0001) %MON dynstat_vvel_min             =  -1.2779853293432E-01
(PID.TID 0000.0001) %MON dynstat_vvel_mean            =   5.4781488058105E-04
(PID.TID 0000.0001) %MON dynstat_vvel_sd              =   1.4009884136760E-02
(PID.TID 0000.0001) %MON dynstat_vvel_del2            =   3.3949620940167E-03
(PID.TID 0000.0001) %MON dynstat_wvel_max             =   1.4459645491290E-04
(PID.TID 0000.0001) %MON dynstat_wvel_min             =  -2.0098818953537E-04
(PID.TID 0000.0001) %MON dynstat_wvel_mean            =   4.1687857340351E-23
(PID.TID 0000.0001) %MON dynstat_wvel_sd              =   1.8454572198322E-05
(PID.TID 0000.0001) %MON dynstat_wvel_del2            =   6.0701829256156E-06
(PID.TID 0000.0001) %MON dynstat_theta_max            =   3.0286617242299E+01
(PID.TID 0000.0001) %MON dynstat_theta_min            =  -2.0087314369919E+00
(PID.TID 0000.0001) %MON dynstat_theta_mean           =   3.5871846549177E+00
(PID.TID 0000.0001) %MON dynstat_theta_sd             =   4.3380718703909E+00
(PID.TID 0000.0001) %MON dynstat_theta_del2           =   1.3973242634462E-01
(PID.TID 0000.0001) %MON dynstat_salt_max             =   3.7382925850212E+01
(PID.TID 0000.0001) %MON dynstat_salt_min             =   2.9889032044242E+01
(PID.TID 0000.0001) %MON dynstat_salt_mean            =   3.4715929233458E+01
(PID.TID 0000.0001) %MON dynstat_salt_sd              =   2.9543831119554E-01
(PID.TID 0000.0001) %MON dynstat_salt_del2            =   2.5260738268269E-02
(PID.TID 0000.0001) %MON dynstat_sst_max              =   3.0286617242299E+01
(PID.TID 0000.0001) %MON dynstat_sst_min              =  -1.9255539389476E+00
(PID.TID 0000.0001) %MON dynstat_sst_mean             =   1.8670833487772E+01
(PID.TID 0000.0001) %MON dynstat_sst_sd               =   8.9388480295564E+00
(PID.TID 0000.0001) %MON dynstat_sst_del2             =   2.6678200898013E-01
(PID.TID 0000.0001) %MON dynstat_sss_max              =   3.7382925042361E+01
(PID.TID 0000.0001) %MON dynstat_sss_min              =   2.9889032044242E+01
(PID.TID 0000.0001) %MON dynstat_sss_mean             =   3.4837562612901E+01
(PID.TID 0000.0001) %MON dynstat_sss_sd               =   9.5557307199769E-01
(PID.TID 0000.0001) %MON dynstat_sss_del2             =   7.8034949701226E-02
(PID.TID 0000.0001) %MON extforcing_qnet_max          =   3.4306240590413E+02
(PID.TID 0000.0001) %MON extforcing_qnet_min          =  -1.7118793309530E+02
(PID.TID 0000.0001) %MON extforcing_qnet_mean         =  -1.2736883730997E+01
(PID.TID 0000.0001) %MON extforcing_qnet_sd           =   7.1912105931505E+01
(PID.TID 0000.0001) %MON extforcing_qnet_del2         =   8.2495532830843E+00
(PID.TID 0000.0001) %MON extforcing_qsw_max           =   0.0000000000000E+00
(PID.TID 0000.0001) %MON extforcing_qsw_min           =   0.0000000000000E+00
(PID.TID 0000.0001) %MON extforcing_qsw_mean          =   0.0000000000000E+00
(PID.TID 0000.0001) %MON extforcing_qsw_sd            =   0.0000000000000E+00
(PID.TID 0000.0001) %MON extforcing_qsw_del2          =   0.0000000000000E+00
(PID.TID 0000.0001) %MON extforcing_empmr_max         =   0.0000000000000E+00
(PID.TID 0000.0001) %MON extforcing_empmr_min         =   0.0000000000000E+00
(PID.TID 0000.0001) %MON extforcing_empmr_mean        =   0.0000000000000E+00
(PID.TID 0000.0001) %MON extforcing_empmr_sd          =   0.0000000000000E+00
(PID.TID 0000.0001) %MON extforcing_empmr_del2        =   0.0000000000000E+00
(PID.TID 0000.0001) %MON extforcing_fu_max            =   3.1191946417093E-01
(PID.TID 0000.0001) %MON extforcing_fu_min            =  -2.4534781302015E-01
(PID.TID 0000.0001) %MON extforcing_fu_mean           =   1.8148839358657E-02
(PID.TID 0000.0001) %MON extforcing_fu_sd             =   9.3306742387951E-02
(PID.TID 0000.0001) %MON extforcing_fu_del2           =   7.9702519182151E-03
(PID.TID 0000.0001) %MON extforcing_fv_max            =   1.7030815749119E-01
(PID.TID 0000.0001) %MON extforcing_fv_min            =  -1.9150605648756E-01
(PID.TID 0000.0001) %MON extforcing_fv_mean           =  -7.2740808657924E-03
(PID.TID 0000.0001) %MON extforcing_fv_sd             =   4.3471644661816E-02
(PID.TID 0000.0001) %MON extforcing_fv_del2           =   4.7968300932690E-03
(PID.TID 0000.0001) %MON advcfl_uvel_max              =   2.8723360173083E-02
(PID.TID 0000.0001) %MON advcfl_vvel_max              =   1.4658204956258E-02
(PID.TID 0000.0001) %MON advcfl_wvel_max              =   5.6481827562521E-02
(PID.TID 0000.0001) %MON advcfl_W_hf_max              =   6.7148108936802E-02
(PID.TID 0000.0001) %MON pe_b_mean                    =   3.0662771462976E-04
(PID.TID 0000.0001) %MON ke_max                       =   1.5072301342349E-02
(PID.TID 0000.0001) %MON ke_mean                      =   1.8055068663017E-04
(PID.TID 0000.0001) %MON ke_vol                       =   1.3226782436723E+18
(PID.TID 0000.0001) %MON vort_r_min                   =  -4.6818468722746E-07
(PID.TID 0000.0001) %MON vort_r_max                   =   3.9172267661993E-07
(PID.TID 0000.0001) %MON vort_a_mean                  =  -2.5205769037484E-05
(PID.TID 0000.0001) %MON vort_a_sd                    =   7.3403467252507E-05
(PID.TID 0000.0001) %MON vort_p_mean                  =  -3.1758669108975E-05
(PID.TID 0000.0001) %MON vort_p_sd                    =   1.3126388149592E-04
(PID.TID 0000.0001) %MON surfExpan_theta_mean         =   1.2773162946804E-05
(PID.TID 0000.0001) %MON surfExpan_salt_mean          =   3.6487736295414E-07
(PID.TID 0000.0001) // =======================================================
(PID.TID 0000.0001) // End MONITOR dynamic field statistics
(PID.TID 0000.0001) // =======================================================
time,SST,SSS,fu,fv,Q,E-P,i0,i1,a,b =   4.4064E+06 -4.6227E-01  3.4453E+01 -1.6988E-02 -1.4224E-02  2.3546E+02  0.0000E+00     2     3  2.0000E-01  8.0000E-01
time,fu0,fu1,fu =   4.4064E+06 -1.4435E-02 -2.7199E-02 -1.6988E-02  2.000000000000000E-01  8.000000000000000E-01
 cg2d: Sum(rhs),rhsMax =   3.14082787555847E-12  9.89195766140874E+00
(PID.TID 0000.0001)                    cg2d_init_res =    2.41884345227846E-01
(PID.TID 0000.0001)                       cg2d_iters =    23
(PID.TID 0000.0001)                         cg2d_res =    7.73512139705367E-14
(PID.TID 0000.0001) // =======================================================
(PID.TID 0000.0001) // Begin MONITOR dynamic field statistics
(PID.TID 0000.0001) // =======================================================
(PID.TID 0000.0001) %MON time_tsnumber                =                   103
(PID.TID 0000.0001) %MON time_secondsf                =   4.4496000000000E+06
(PID.TID 0000.0001) %MON dynstat_eta_max              =   1.1756594463891E+00
(PID.TID 0000.0001) %MON dynstat_eta_min              =  -1.5498584655443E+00
(PID.TID 0000.0001) %MON dynstat_eta_mean             =  -1.5701037656978E-15
(PID.TID 0000.0001) %MON dynstat_eta_sd               =   4.9136134843996E-01
(PID.TID 0000.0001) %MON dynstat_eta_del2             =   2.6691013189248E-02
(PID.TID 0000.0001) %MON dynstat_uvel_max             =   1.7997741681896E-01
(PID.TID 0000.0001) %MON dynstat_uvel_min             =  -1.2908093585044E-01
(PID.TID 0000.0001) %MON dynstat_uvel_mean            =   1.0791412466810E-03
(PID.TID 0000.0001) %MON dynstat_uvel_sd              =   1.4419013941799E-02
(PID.TID 0000.0001) %MON dynstat_uvel_del2            =   3.3431556910207E-03
(PID.TID 0000.0001) %MON dynstat_vvel_max             =   1.5280441766921E-01
(PID.TID 0000.0001) %MON dynstat_vvel_min             =  -1.2698303643791E-01
(PID.TID 0000.0001) %MON dynstat_vvel_mean            =   6.3980543195562E-04
(PID.TID 0000.0001) %MON dynstat_vvel_sd              =   1.3972906652238E-02
(PID.TID 0000.0001) %MON dynstat_vvel_del2            =   3.3971861262874E-03
(PID.TID 0000.0001) %MON dynstat_wvel_max             =   1.4557614797377E-04
(PID.TID 0000.0001) %MON dynstat_wvel_min             =  -2.0531953820896E-04
(PID.TID 0000.0001) %MON dynstat_wvel_mean            =   1.3762153729965E-24
(PID.TID 0000.0001) %MON dynstat_wvel_sd              =   1.8362265894203E-05
(PID.TID 0000.0001) %MON dynstat_wvel_del2            =   6.0383998988428E-06
(PID.TID 0000.0001) %MON dynstat_theta_max            =   3.0248682394163E+01
(PID.TID 0000.0001) %MON dynstat_theta_min            =  -2.0076224430902E+00
(PID.TID 0000.0001) %MON dynstat_theta_mean           =   3.5870777351235E+00
(PID.TID 0000.0001) %MON dynstat_theta_sd             =   4.3378518826182E+00
(PID.TID 0000.0001) %MON dynstat_theta_del2           =   1.3970758915410E-01
(PID.TID 0000.0001) %MON dynstat_salt_max             =   3.7382617281286E+01
(PID.TID 0000.0001) %MON dynstat_salt_min             =   2.9888805505096E+01
(PID.TID 0000.0001) %MON dynstat_salt_mean            =   3.4715925657456E+01
(PID.TID 0000.0001) %MON dynstat_salt_sd              =   2.9542556610844E-01
(PID.TID 0000.0001) %MON dynstat_salt_del2            =   2.5239846432009E-02
(PID.TID 0000.0001) %MON dynstat_sst_max              =   3.0248682394163E+01
(PID.TID 0000.0001) %MON dynstat_sst_min              =  -1.9244982071270E+00
(PID.TID 0000.0001) %MON dynstat_sst_mean             =   1.8673866256718E+01
(PID.TID 0000.0001) %MON dynstat_sst_sd               =   8.9395488650718E+00
(PID.TID 0000.0001) %MON dynstat_sst_del2             =   2.6660550293694E-01
(PID.TID 0000.0001) %MON dynstat_sss_max              =   3.7382616484955E+01
(PID.TID 0000.0001) %MON dynstat_sss_min              =   2.9888805505096E+01
(PID.TID 0000.0001) %MON dynstat_sss_mean             =   3.4837550656898E+01
(PID.TID 0000.0001) %MON dynstat_sss_sd               =   9.5545544727651E-01
(PID.TID 0000.0001) %MON dynstat_sss_del2             =   7.7955905029876E-02
(PID.TID 0000.0001) %MON extforcing_qnet_max          =   3.4166333007812E+02
(PID.TID 0000.0001) %MON extforcing_qnet_min          =  -1.7103829345703E+02
(PID.TID 0000.0001) %MON extforcing_qnet_mean         =  -1.2625213981184E+01
(PID.TID 0000.0001) %MON extforcing_qnet_sd           =   7.1234414492605E+01
(PID.TID 0000.0001) %MON extforcing_qnet_del2         =   8.2232187328078E+00
(PID.TID 0000.0001) %MON extforcing_qsw_max           =   0.0000000000000E+00
(PID.TID 0000.0001) %MON extforcing_qsw_min           =   0.0000000000000E+00
(PID.TID 0000.0001) %MON extforcing_qsw_mean          =   0.0000000000000E+00
(PID.TID 0000.0001) %MON extforcing_qsw_sd            =   0.0000000000000E+00
(PID.TID 0000.0001) %MON extforcing_qsw_del2          =   0.0000000000000E+00
(PID.TID 0000.0001) %MON extforcing_empmr_max         =   0.0000000000000E+00
(PID.TID 0000.0001) %MON extforcing_empmr_min         =   0.0000000000000E+00
(PID.TID 0000.0001) %MON extforcing_empmr_mean        =   0.0000000000000E+00
(PID.TID 0000.0001) %MON extforcing_empmr_sd          =   0.0000000000000E+00
(PID.TID 0000.0001) %MON extforcing_empmr_del2        =   0.0000000000000E+00
(PID.TID 0000.0001) %MON extforcing_fu_max            =   3.1258164048195E-01
(PID.TID 0000.0001) %MON extforcing_fu_min            =  -2.4804012775421E-01
(PID.TID 0000.0001) %MON extforcing_fu_mean           =   1.8195939153386E-02
(PID.TID 0000.0001) %MON extforcing_fu_sd             =   9.3365690565339E-02
(PID.TID 0000.0001) %MON extforcing_fu_del2           =   7.9678528313309E-03
(PID.TID 0000.0001) %MON extforcing_fv_max            =   1.6746481135488E-01
(PID.TID 0000.0001) %MON extforcing_fv_min            =  -1.9076303839684E-01
(PID.TID 0000.0001) %MON extforcing_fv_mean           =  -7.2792950407772E-03
(PID.TID 0000.0001) %MON extforcing_fv_sd             =   4.3351289204055E-02
(PID.TID 0000.0001) %MON extforcing_fv_del2           =   4.7723209916627E-03
(PID.TID 0000.0001) %MON advcfl_uvel_max              =   2.9744473394672E-02
(PID.TID 0000.0001) %MON advcfl_vvel_max              =   1.4843723832452E-02
(PID.TID 0000.0001) %MON advcfl_wvel_max              =   5.9804994329921E-02
(PID.TID 0000.0001) %MON advcfl_W_hf_max              =   6.5109693952438E-02
(PID.TID 0000.0001) %MON pe_b_mean                    =   3.0894643064226E-04
(PID.TID 0000.0001) %MON ke_max                       =   1.6233652840759E-02
(PID.TID 0000.0001) %MON ke_mean                      =   1.8282132754288E-04
(PID.TID 0000.0001) %MON ke_vol                       =   1.3226782436723E+18
(PID.TID 0000.0001) %MON vort_r_min                   =  -4.6692011431427E-07
(PID.TID 0000.0001) %MON vort_r_max                   =   3.9268526181011E-07
(PID.TID 0000.0001) %MON vort_a_mean                  =  -2.5205769040755E-05
(PID.TID 0000.0001) %MON vort_a_sd                    =   7.3403460126403E-05
(PID.TID 0000.0001) %MON vort_p_mean                  =  -3.1758669113095E-05
(PID.TID 0000.0001) %MON vort_p_sd                    =   1.3126390642646E-04
(PID.TID 0000.0001) %MON surfExpan_theta_mean         =   1.2309128808132E-05
(PID.TID 0000.0001) %MON surfExpan_salt_mean          =   3.4089859093331E-07
(PID.TID 0000.0001) // =======================================================
(PID.TID 0000.0001) // End MONITOR dynamic field statistics
(PID.TID 0000.0001) // =======================================================
time,SST,SSS,fu,fv,Q,E-P,i0,i1,a,b =   4.4496E+06 -4.5647E-01  3.4455E+01 -1.7200E-02 -1.3940E-02  2.3505E+02  0.0000E+00     2     3  2.1667E-01  7.8333E-01
time,fu0,fu1,fu =   4.4496E+06 -1.4435E-02 -2.7199E-02 -1.7200E-02  2.166666666666667E-01  7.833333333333333E-01
 cg2d: Sum(rhs),rhsMax =   2.85863693827437E-12  9.67292412767438E+00
(PID.TID 0000.0001)                    cg2d_init_res =    2.51132633407519E-01
(PID.TID 0000.0001)                       cg2d_iters =    24
(PID.TID 0000.0001)                         cg2d_res =    3.44574502095746E-14
(PID.TID 0000.0001) // =======================================================
(PID.TID 0000.0001) // Begin MONITOR dynamic field statistics
(PID.TID 0000.0001) // =======================================================
(PID.TID 0000.0001) %MON time_tsnumber                =                   104
(PID.TID 0000.0001) %MON time_secondsf                =   4.4928000000000E+06
(PID.TID 0000.0001) %MON dynstat_eta_max              =   1.1501083955374E+00
(PID.TID 0000.0001) %MON dynstat_eta_min              =  -1.5539117958398E+00
(PID.TID 0000.0001) %MON dynstat_eta_mean             =  -1.4453453471188E-15
(PID.TID 0000.0001) %MON dynstat_eta_sd               =   4.9316539995519E-01
(PID.TID 0000.0001) %MON dynstat_eta_del2             =   2.6643365418243E-02
(PID.TID 0000.0001) %MON dynstat_uvel_max             =   1.8554928634530E-01
(PID.TID 0000.0001) %MON dynstat_uvel_min             =  -1.2881127481221E-01
(PID.TID 0000.0001) %MON dynstat_uvel_mean            =   1.0778990705599E-03
(PID.TID 0000.0001) %MON dynstat_uvel_sd              =   1.4627028566374E-02
(PID.TID 0000.0001) %MON dynstat_uvel_del2            =   3.3560457905055E-03
(PID.TID 0000.0001) %MON dynstat_vvel_max             =   1.5460727636088E-01
(PID.TID 0000.0001) %MON dynstat_vvel_min             =  -1.2843474447312E-01
(PID.TID 0000.0001) %MON dynstat_vvel_mean            =   7.3052126079852E-04
(PID.TID 0000.0001) %MON dynstat_vvel_sd              =   1.3935274947537E-02
(PID.TID 0000.0001) %MON dynstat_vvel_del2            =   3.3959875005092E-03
(PID.TID 0000.0001) %MON dynstat_wvel_max             =   1.4667707542355E-04
(PID.TID 0000.0001) %MON dynstat_wvel_min             =  -2.0909744894000E-04
(PID.TID 0000.0001) %MON dynstat_wvel_mean            =   1.2147394358982E-22
(PID.TID 0000.0001) %MON dynstat_wvel_sd              =   1.8275614446941E-05
(PID.TID 0000.0001) %MON dynstat_wvel_del2            =   6.0053645508656E-06
(PID.TID 0000.0001) %MON dynstat_theta_max            =   3.0197767962350E+01
(PID.TID 0000.0001) %MON dynstat_theta_min            =  -2.0065552589957E+00
(PID.TID 0000.0001) %MON dynstat_theta_mean           =   3.5869758758870E+00
(PID.TID 0000.0001) %MON dynstat_theta_sd             =   4.3376555761984E+00
(PID.TID 0000.0001) %MON dynstat_theta_del2           =   1.3968517663215E-01
(PID.TID 0000.0001) %MON dynstat_salt_max             =   3.7382343071157E+01
(PID.TID 0000.0001) %MON dynstat_salt_min             =   2.9888501580719E+01
(PID.TID 0000.0001) %MON dynstat_salt_mean            =   3.4715922406008E+01
(PID.TID 0000.0001) %MON dynstat_salt_sd              =   2.9541043979658E-01
(PID.TID 0000.0001) %MON dynstat_salt_del2            =   2.5219309188788E-02
(PID.TID 0000.0001) %MON dynstat_sst_max              =   3.0197767962350E+01
(PID.TID 0000.0001) %MON dynstat_sst_min              =  -1.9234805192118E+00
(PID.TID 0000.0001) %MON dynstat_sst_mean             =   1.8677012351430E+01
(PID.TID 0000.0001) %MON dynstat_sst_sd               =   8.9404346386626E+00
(PID.TID 0000.0001) %MON dynstat_sst_del2             =   2.6644912395721E-01
(PID.TID 0000.0001) %MON dynstat_sss_max              =   3.7382342284732E+01
(PID.TID 0000.0001) %MON dynstat_sss_min              =   2.9888501580719E+01
(PID.TID 0000.0001) %MON dynstat_sss_mean             =   3.4837553745819E+01
(PID.TID 0000.0001) %MON dynstat_sss_sd               =   9.5533322546987E-01
(PID.TID 0000.0001) %MON dynstat_sss_del2             =   7.7880402550237E-02
(PID.TID 0000.0001) %MON extforcing_qnet_max          =   3.4026425425212E+02
(PID.TID 0000.0001) %MON extforcing_qnet_min          =  -1.7088865381877E+02
(PID.TID 0000.0001) %MON extforcing_qnet_mean         =  -1.2513544231370E+01
(PID.TID 0000.0001) %MON extforcing_qnet_sd           =   7.0560719234813E+01
(PID.TID 0000.0001) %MON extforcing_qnet_del2         =   8.1972664732279E+00
(PID.TID 0000.0001) %MON extforcing_qsw_max           =   0.0000000000000E+00
(PID.TID 0000.0001) %MON extforcing_qsw_min           =   0.0000000000000E+00
(PID.TID 0000.0001) %MON extforcing_qsw_mean          =   0.0000000000000E+00
(PID.TID 0000.0001) %MON extforcing_qsw_sd            =   0.0000000000000E+00
(PID.TID 0000.0001) %MON extforcing_qsw_del2          =   0.0000000000000E+00
(PID.TID 0000.0001) %MON extforcing_empmr_max         =   0.0000000000000E+00
(PID.TID 0000.0001) %MON extforcing_empmr_min         =   0.0000000000000E+00
(PID.TID 0000.0001) %MON extforcing_empmr_mean        =   0.0000000000000E+00
(PID.TID 0000.0001) %MON extforcing_empmr_sd          =   0.0000000000000E+00
(PID.TID 0000.0001) %MON extforcing_empmr_del2        =   0.0000000000000E+00
(PID.TID 0000.0001) %MON extforcing_fu_max            =   3.1324381679296E-01
(PID.TID 0000.0001) %MON extforcing_fu_min            =  -2.5073244248827E-01
(PID.TID 0000.0001) %MON extforcing_fu_mean           =   1.8243038948115E-02
(PID.TID 0000.0001) %MON extforcing_fu_sd             =   9.3429999503786E-02
(PID.TID 0000.0001) %MON extforcing_fu_del2           =   7.9671767739449E-03
(PID.TID 0000.0001) %MON extforcing_fv_max            =   1.6462146521856E-01
(PID.TID 0000.0001) %MON extforcing_fv_min            =  -1.9002002030611E-01
(PID.TID 0000.0001) %MON extforcing_fv_mean           =  -7.2845092157619E-03
(PID.TID 0000.0001) %MON extforcing_fv_sd             =   4.3234967418536E-02
(PID.TID 0000.0001) %MON extforcing_fv_del2           =   4.7493930298001E-03
(PID.TID 0000.0001) %MON advcfl_uvel_max              =   3.0665324064797E-02
(PID.TID 0000.0001) %MON advcfl_vvel_max              =   1.5018857097159E-02
(PID.TID 0000.0001) %MON advcfl_wvel_max              =   6.3157495285501E-02
(PID.TID 0000.0001) %MON advcfl_W_hf_max              =   6.2420890957716E-02
(PID.TID 0000.0001) %MON pe_b_mean                    =   3.1121921198104E-04
(PID.TID 0000.0001) %MON ke_max                       =   1.7295016746853E-02
(PID.TID 0000.0001) %MON ke_mean                      =   1.8514939596516E-04
(PID.TID 0000.0001) %MON ke_vol                       =   1.3226782436723E+18
(PID.TID 0000.0001) %MON vort_r_min                   =  -4.6585409619365E-07
(PID.TID 0000.0001) %MON vort_r_max                   =   3.9363955808536E-07
(PID.TID 0000.0001) %MON vort_a_mean                  =  -2.5205769045311E-05
(PID.TID 0000.0001) %MON vort_a_sd                    =   7.3403454383372E-05
(PID.TID 0000.0001) %MON vort_p_mean                  =  -3.1758669118836E-05
(PID.TID 0000.0001) %MON vort_p_sd                    =   1.3126393610386E-04
(PID.TID 0000.0001) %MON surfExpan_theta_mean         =   1.1804851660904E-05
(PID.TID 0000.0001) %MON surfExpan_salt_mean          =   3.0924292401612E-07
(PID.TID 0000.0001) // =======================================================
(PID.TID 0000.0001) // End MONITOR dynamic field statistics
(PID.TID 0000.0001) // =======================================================
time,SST,SSS,fu,fv,Q,E-P,i0,i1,a,b =   4.4928E+06 -4.5067E-01  3.4458E+01 -1.7413E-02 -1.3655E-02  2.3463E+02  0.0000E+00     2     3  2.3333E-01  7.6667E-01
time,fu0,fu1,fu =   4.4928E+06 -1.4435E-02 -2.7199E-02 -1.7413E-02  2.333333333333333E-01  7.666666666666666E-01
 cg2d: Sum(rhs),rhsMax =   2.80520051632038E-12  9.41296262321739E+00
(PID.TID 0000.0001)                    cg2d_init_res =    2.63049946100719E-01
(PID.TID 0000.0001)                       cg2d_iters =    24
(PID.TID 0000.0001)                         cg2d_res =    5.70453673324284E-14
(PID.TID 0000.0001) // =======================================================
(PID.TID 0000.0001) // Begin MONITOR dynamic field statistics
(PID.TID 0000.0001) // =======================================================
(PID.TID 0000.0001) %MON time_tsnumber                =                   105
(PID.TID 0000.0001) %MON time_secondsf                =   4.5360000000000E+06
(PID.TID 0000.0001) %MON dynstat_eta_max              =   1.1197607888808E+00
(PID.TID 0000.0001) %MON dynstat_eta_min              =  -1.5571588190889E+00
(PID.TID 0000.0001) %MON dynstat_eta_mean             =  -1.5263148555529E-15
(PID.TID 0000.0001) %MON dynstat_eta_sd               =   4.9493149697813E-01
(PID.TID 0000.0001) %MON dynstat_eta_del2             =   2.6566824039997E-02
(PID.TID 0000.0001) %MON dynstat_uvel_max             =   1.9182550166434E-01
(PID.TID 0000.0001) %MON dynstat_uvel_min             =  -1.2865533998141E-01
(PID.TID 0000.0001) %MON dynstat_uvel_mean            =   1.0823316860267E-03
(PID.TID 0000.0001) %MON dynstat_uvel_sd              =   1.4830741371720E-02
(PID.TID 0000.0001) %MON dynstat_uvel_del2            =   3.3687999531172E-03
(PID.TID 0000.0001) %MON dynstat_vvel_max             =   1.5629446974736E-01
(PID.TID 0000.0001) %MON dynstat_vvel_min             =  -1.3014758186398E-01
(PID.TID 0000.0001) %MON dynstat_vvel_mean            =   8.1899137184025E-04
(PID.TID 0000.0001) %MON dynstat_vvel_sd              =   1.3897965151506E-02
(PID.TID 0000.0001) %MON dynstat_vvel_del2            =   3.3924285825734E-03
(PID.TID 0000.0001) %MON dynstat_wvel_max             =   1.4786838229211E-04
(PID.TID 0000.0001) %MON dynstat_wvel_min             =  -2.1225058567993E-04
(PID.TID 0000.0001) %MON dynstat_wvel_mean            =  -5.3098976474780E-23
(PID.TID 0000.0001) %MON dynstat_wvel_sd              =   1.8196774732531E-05
(PID.TID 0000.0001) %MON dynstat_wvel_del2            =   5.9688598380802E-06
(PID.TID 0000.0001) %MON dynstat_theta_max            =   3.0135042147227E+01
(PID.TID 0000.0001) %MON dynstat_theta_min            =  -2.0055264583753E+00
(PID.TID 0000.0001) %MON dynstat_theta_mean           =   3.5868794862661E+00
(PID.TID 0000.0001) %MON dynstat_theta_sd             =   4.3374850126120E+00
(PID.TID 0000.0001) %MON dynstat_theta_del2           =   1.3966297473471E-01
(PID.TID 0000.0001) %MON dynstat_salt_max             =   3.7382101997801E+01
(PID.TID 0000.0001) %MON dynstat_salt_min             =   2.9888128637073E+01
(PID.TID 0000.0001) %MON dynstat_salt_mean            =   3.4715919561625E+01
(PID.TID 0000.0001) %MON dynstat_salt_sd              =   2.9539301108117E-01
(PID.TID 0000.0001) %MON dynstat_salt_del2            =   2.5199881506399E-02
(PID.TID 0000.0001) %MON dynstat_sst_max              =   3.0135042147227E+01
(PID.TID 0000.0001) %MON dynstat_sst_min              =  -1.9225239521519E+00
(PID.TID 0000.0001) %MON dynstat_sst_mean             =   1.8680228537117E+01
(PID.TID 0000.0001) %MON dynstat_sst_sd               =   8.9415337637390E+00
(PID.TID 0000.0001) %MON dynstat_sst_del2             =   2.6627000315692E-01
(PID.TID 0000.0001) %MON dynstat_sss_max              =   3.7382101220621E+01
(PID.TID 0000.0001) %MON dynstat_sss_min              =   2.9888128637073E+01
(PID.TID 0000.0001) %MON dynstat_sss_mean             =   3.4837563207576E+01
(PID.TID 0000.0001) %MON dynstat_sss_sd               =   9.5519271193480E-01
(PID.TID 0000.0001) %MON dynstat_sss_del2             =   7.7806944148172E-02
(PID.TID 0000.0001) %MON extforcing_qnet_max          =   3.3886517842611E+02
(PID.TID 0000.0001) %MON extforcing_qnet_min          =  -1.7073901418050E+02
(PID.TID 0000.0001) %MON extforcing_qnet_mean         =  -1.2401874481557E+01
(PID.TID 0000.0001) %MON extforcing_qnet_sd           =   6.9891135718298E+01
(PID.TID 0000.0001) %MON extforcing_qnet_del2         =   8.1721466500659E+00
(PID.TID 0000.0001) %MON extforcing_qsw_max           =   0.0000000000000E+00
(PID.TID 0000.0001) %MON extforcing_qsw_min           =   0.0000000000000E+00
(PID.TID 0000.0001) %MON extforcing_qsw_mean          =   0.0000000000000E+00
(PID.TID 0000.0001) %MON extforcing_qsw_sd            =   0.0000000000000E+00
(PID.TID 0000.0001) %MON extforcing_qsw_del2          =   0.0000000000000E+00
(PID.TID 0000.0001) %MON extforcing_empmr_max         =   0.0000000000000E+00
(PID.TID 0000.0001) %MON extforcing_empmr_min         =   0.0000000000000E+00
(PID.TID 0000.0001) %MON extforcing_empmr_mean        =   0.0000000000000E+00
(PID.TID 0000.0001) %MON extforcing_empmr_sd          =   0.0000000000000E+00
(PID.TID 0000.0001) %MON extforcing_empmr_del2        =   0.0000000000000E+00
(PID.TID 0000.0001) %MON extforcing_fu_max            =   3.1390599310398E-01
(PID.TID 0000.0001) %MON extforcing_fu_min            =  -2.5342475722233E-01
(PID.TID 0000.0001) %MON extforcing_fu_mean           =   1.8290138742845E-02
(PID.TID 0000.0001) %MON extforcing_fu_sd             =   9.3499658141920E-02
(PID.TID 0000.0001) %MON extforcing_fu_del2           =   7.9684755729262E-03
(PID.TID 0000.0001) %MON extforcing_fv_max            =   1.6197121615211E-01
(PID.TID 0000.0001) %MON extforcing_fv_min            =  -1.8927700221539E-01
(PID.TID 0000.0001) %MON extforcing_fv_mean           =  -7.2897233907466E-03
(PID.TID 0000.0001) %MON extforcing_fv_sd             =   4.3122711947279E-02
(PID.TID 0000.0001) %MON extforcing_fv_del2           =   4.7288382194614E-03
(PID.TID 0000.0001) %MON advcfl_uvel_max              =   3.1702580421044E-02
(PID.TID 0000.0001) %MON advcfl_vvel_max              =   1.5182754404992E-02
(PID.TID 0000.0001) %MON advcfl_wvel_max              =   7.0376663495411E-02
(PID.TID 0000.0001) %MON advcfl_W_hf_max              =   7.2338314116793E-02
(PID.TID 0000.0001) %MON pe_b_mean                    =   3.1345224576708E-04
(PID.TID 0000.0001) %MON ke_max                       =   1.8238539093485E-02
(PID.TID 0000.0001) %MON ke_mean                      =   1.8747539411018E-04
(PID.TID 0000.0001) %MON ke_vol                       =   1.3226782436723E+18
(PID.TID 0000.0001) %MON vort_r_min                   =  -4.6508786221778E-07
(PID.TID 0000.0001) %MON vort_r_max                   =   3.9460279271746E-07
(PID.TID 0000.0001) %MON vort_a_mean                  =  -2.5205769050925E-05
(PID.TID 0000.0001) %MON vort_a_sd                    =   7.3403449990568E-05
(PID.TID 0000.0001) %MON vort_p_mean                  =  -3.1758669125910E-05
(PID.TID 0000.0001) %MON vort_p_sd                    =   1.3126396900427E-04
(PID.TID 0000.0001) %MON surfExpan_theta_mean         =   1.1266383727220E-05
(PID.TID 0000.0001) %MON surfExpan_salt_mean          =   2.7069806025482E-07
(PID.TID 0000.0001) // =======================================================
(PID.TID 0000.0001) // End MONITOR dynamic field statistics
(PID.TID 0000.0001) // =======================================================
time,SST,SSS,fu,fv,Q,E-P,i0,i1,a,b =   4.5360E+06 -4.4487E-01  3.4461E+01 -1.7626E-02 -1.3371E-02  2.3421E+02  0.0000E+00     2     3  2.5000E-01  7.5000E-01
time,fu0,fu1,fu =   4.5360E+06 -1.4435E-02 -2.7199E-02 -1.7626E-02  2.500000000000000E-01  7.500000000000000E-01
 cg2d: Sum(rhs),rhsMax =   2.69657907114862E-12  9.12079453551752E+00
(PID.TID 0000.0001)                    cg2d_init_res =    2.76990507202122E-01
(PID.TID 0000.0001)                       cg2d_iters =    24
(PID.TID 0000.0001)                         cg2d_res =    6.08001262446501E-14
(PID.TID 0000.0001) // =======================================================
(PID.TID 0000.0001) // Begin MONITOR dynamic field statistics
(PID.TID 0000.0001) // =======================================================
(PID.TID 0000.0001) %MON time_tsnumber                =                   106
(PID.TID 0000.0001) %MON time_secondsf                =   4.5792000000000E+06
(PID.TID 0000.0001) %MON dynstat_eta_max              =   1.0856368160561E+00
(PID.TID 0000.0001) %MON dynstat_eta_min              =  -1.5597383316449E+00
(PID.TID 0000.0001) %MON dynstat_eta_mean             =  -1.9160849752773E-15
(PID.TID 0000.0001) %MON dynstat_eta_sd               =   4.9666604173134E-01
(PID.TID 0000.0001) %MON dynstat_eta_del2             =   2.6493207571348E-02
(PID.TID 0000.0001) %MON dynstat_uvel_max             =   1.9684552335918E-01
(PID.TID 0000.0001) %MON dynstat_uvel_min             =  -1.2925302204030E-01
(PID.TID 0000.0001) %MON dynstat_uvel_mean            =   1.0918264882372E-03
(PID.TID 0000.0001) %MON dynstat_uvel_sd              =   1.5025541446576E-02
(PID.TID 0000.0001) %MON dynstat_uvel_del2            =   3.3799675104840E-03
(PID.TID 0000.0001) %MON dynstat_vvel_max             =   1.5785736729336E-01
(PID.TID 0000.0001) %MON dynstat_vvel_min             =  -1.3159092382342E-01
(PID.TID 0000.0001) %MON dynstat_vvel_mean            =   9.0429825905616E-04
(PID.TID 0000.0001) %MON dynstat_vvel_sd              =   1.3861695431319E-02
(PID.TID 0000.0001) %MON dynstat_vvel_del2            =   3.3877350256948E-03
(PID.TID 0000.0001) %MON dynstat_wvel_max             =   1.4911861949621E-04
(PID.TID 0000.0001) %MON dynstat_wvel_min             =  -2.1471491135450E-04
(PID.TID 0000.0001) %MON dynstat_wvel_mean            =   4.0346047351679E-23
(PID.TID 0000.0001) %MON dynstat_wvel_sd              =   1.8126829468611E-05
(PID.TID 0000.0001) %MON dynstat_wvel_del2            =   5.9347822438550E-06
(PID.TID 0000.0001) %MON dynstat_theta_max            =   3.0061908587430E+01
(PID.TID 0000.0001) %MON dynstat_theta_min            =  -2.0045305561507E+00
(PID.TID 0000.0001) %MON dynstat_theta_mean           =   3.5867889137992E+00
(PID.TID 0000.0001) %MON dynstat_theta_sd             =   4.3373416892001E+00
(PID.TID 0000.0001) %MON dynstat_theta_del2           =   1.3964634902485E-01
(PID.TID 0000.0001) %MON dynstat_salt_max             =   3.7381891555780E+01
(PID.TID 0000.0001) %MON dynstat_salt_min             =   2.9887698185344E+01
(PID.TID 0000.0001) %MON dynstat_salt_mean            =   3.4715917196582E+01
(PID.TID 0000.0001) %MON dynstat_salt_sd              =   2.9537336862775E-01
(PID.TID 0000.0001) %MON dynstat_salt_del2            =   2.5181525527698E-02
(PID.TID 0000.0001) %MON dynstat_sst_max              =   3.0061908587430E+01
(PID.TID 0000.0001) %MON dynstat_sst_min              =  -1.9216475233164E+00
(PID.TID 0000.0001) %MON dynstat_sst_mean             =   1.8683518622083E+01
(PID.TID 0000.0001) %MON dynstat_sst_sd               =   8.9428598053972E+00
(PID.TID 0000.0001) %MON dynstat_sst_del2             =   2.6609011799321E-01
(PID.TID 0000.0001) %MON dynstat_sss_max              =   3.7381890788113E+01
(PID.TID 0000.0001) %MON dynstat_sss_min              =   2.9887698185344E+01
(PID.TID 0000.0001) %MON dynstat_sss_mean             =   3.4837587695587E+01
(PID.TID 0000.0001) %MON dynstat_sss_sd               =   9.5505038586462E-01
(PID.TID 0000.0001) %MON dynstat_sss_del2             =   7.7743674765634E-02
(PID.TID 0000.0001) %MON extforcing_qnet_max          =   3.3746610260010E+02
(PID.TID 0000.0001) %MON extforcing_qnet_min          =  -1.7058937454224E+02
(PID.TID 0000.0001) %MON extforcing_qnet_mean         =  -1.2290204731744E+01
(PID.TID 0000.0001) %MON extforcing_qnet_sd           =   6.9225783255105E+01
(PID.TID 0000.0001) %MON extforcing_qnet_del2         =   8.1475108897318E+00
(PID.TID 0000.0001) %MON extforcing_qsw_max           =   0.0000000000000E+00
(PID.TID 0000.0001) %MON extforcing_qsw_min           =   0.0000000000000E+00
(PID.TID 0000.0001) %MON extforcing_qsw_mean          =   0.0000000000000E+00
(PID.TID 0000.0001) %MON extforcing_qsw_sd            =   0.0000000000000E+00
(PID.TID 0000.0001) %MON extforcing_qsw_del2          =   0.0000000000000E+00
(PID.TID 0000.0001) %MON extforcing_empmr_max         =   0.0000000000000E+00
(PID.TID 0000.0001) %MON extforcing_empmr_min         =   0.0000000000000E+00
(PID.TID 0000.0001) %MON extforcing_empmr_mean        =   0.0000000000000E+00
(PID.TID 0000.0001) %MON extforcing_empmr_sd          =   0.0000000000000E+00
(PID.TID 0000.0001) %MON extforcing_empmr_del2        =   0.0000000000000E+00
(PID.TID 0000.0001) %MON extforcing_fu_max            =   3.1456816941500E-01
(PID.TID 0000.0001) %MON extforcing_fu_min            =  -2.5611707195640E-01
(PID.TID 0000.0001) %MON extforcing_fu_mean           =   1.8337238537574E-02
(PID.TID 0000.0001) %MON extforcing_fu_sd             =   9.3574654532508E-02
(PID.TID 0000.0001) %MON extforcing_fu_del2           =   7.9717920102726E-03
(PID.TID 0000.0001) %MON extforcing_fv_max            =   1.6103386878967E-01
(PID.TID 0000.0001) %MON extforcing_fv_min            =  -1.8853398412466E-01
(PID.TID 0000.0001) %MON extforcing_fv_mean           =  -7.2949375657314E-03
(PID.TID 0000.0001) %MON extforcing_fv_sd             =   4.3014554625987E-02
(PID.TID 0000.0001) %MON extforcing_fv_del2           =   4.7094742197129E-03
(PID.TID 0000.0001) %MON advcfl_uvel_max              =   3.2532228409008E-02
(PID.TID 0000.0001) %MON advcfl_vvel_max              =   1.5334577368654E-02
(PID.TID 0000.0001) %MON advcfl_wvel_max              =   7.9328101840247E-02
(PID.TID 0000.0001) %MON advcfl_W_hf_max              =   8.1698235887994E-02
(PID.TID 0000.0001) %MON pe_b_mean                    =   3.1565315508915E-04
(PID.TID 0000.0001) %MON ke_max                       =   1.9049513614394E-02
(PID.TID 0000.0001) %MON ke_mean                      =   1.8974105833757E-04
(PID.TID 0000.0001) %MON ke_vol                       =   1.3226782436723E+18
(PID.TID 0000.0001) %MON vort_r_min                   =  -4.6471368423790E-07
(PID.TID 0000.0001) %MON vort_r_max                   =   3.9559166292366E-07
(PID.TID 0000.0001) %MON vort_a_mean                  =  -2.5205769057338E-05
(PID.TID 0000.0001) %MON vort_a_sd                    =   7.3403446878564E-05
(PID.TID 0000.0001) %MON vort_p_mean                  =  -3.1758669133991E-05
(PID.TID 0000.0001) %MON vort_p_sd                    =   1.3126400345272E-04
(PID.TID 0000.0001) %MON surfExpan_theta_mean         =   1.0699665524871E-05
(PID.TID 0000.0001) %MON surfExpan_salt_mean          =   2.2613700233708E-07
(PID.TID 0000.0001) // =======================================================
(PID.TID 0000.0001) // End MONITOR dynamic field statistics
(PID.TID 0000.0001) // =======================================================
time,SST,SSS,fu,fv,Q,E-P,i0,i1,a,b =   4.5792E+06 -4.3907E-01  3.4463E+01 -1.7838E-02 -1.3087E-02  2.3379E+02  0.0000E+00     2     3  2.6667E-01  7.3333E-01
time,fu0,fu1,fu =   4.5792E+06 -1.4435E-02 -2.7199E-02 -1.7838E-02  2.666666666666667E-01  7.333333333333334E-01
 cg2d: Sum(rhs),rhsMax =   2.36968777933555E-12  8.86256531746294E+00
(PID.TID 0000.0001)                    cg2d_init_res =    2.90362900955906E-01
(PID.TID 0000.0001)                       cg2d_iters =    24
(PID.TID 0000.0001)                         cg2d_res =    6.32549575419748E-14
(PID.TID 0000.0001) // =======================================================
(PID.TID 0000.0001) // Begin MONITOR dynamic field statistics
(PID.TID 0000.0001) // =======================================================
(PID.TID 0000.0001) %MON time_tsnumber                =                   107
(PID.TID 0000.0001) %MON time_secondsf                =   4.6224000000000E+06
(PID.TID 0000.0001) %MON dynstat_eta_max              =   1.0488036305355E+00
(PID.TID 0000.0001) %MON dynstat_eta_min              =  -1.5617831266030E+00
(PID.TID 0000.0001) %MON dynstat_eta_mean             =  -1.3922524433011E-15
(PID.TID 0000.0001) %MON dynstat_eta_sd               =   4.9837553361392E-01
(PID.TID 0000.0001) %MON dynstat_eta_del2             =   2.6484873426469E-02
(PID.TID 0000.0001) %MON dynstat_uvel_max             =   2.0051756404385E-01
(PID.TID 0000.0001) %MON dynstat_uvel_min             =  -1.2980266377086E-01
(PID.TID 0000.0001) %MON dynstat_uvel_mean            =   1.1056452414017E-03
(PID.TID 0000.0001) %MON dynstat_uvel_sd              =   1.5207607696000E-02
(PID.TID 0000.0001) %MON dynstat_uvel_del2            =   3.3882273266732E-03
(PID.TID 0000.0001) %MON dynstat_vvel_max             =   1.5928762407994E-01
(PID.TID 0000.0001) %MON dynstat_vvel_min             =  -1.3275317573550E-01
(PID.TID 0000.0001) %MON dynstat_vvel_mean            =   9.8560980059037E-04
(PID.TID 0000.0001) %MON dynstat_vvel_sd              =   1.3826857272242E-02
(PID.TID 0000.0001) %MON dynstat_vvel_del2            =   3.3808406989894E-03
(PID.TID 0000.0001) %MON dynstat_wvel_max             =   1.5039581005940E-04
(PID.TID 0000.0001) %MON dynstat_wvel_min             =  -2.1643658121204E-04
(PID.TID 0000.0001) %MON dynstat_wvel_mean            =  -2.6854549311737E-22
(PID.TID 0000.0001) %MON dynstat_wvel_sd              =   1.8065832050638E-05
(PID.TID 0000.0001) %MON dynstat_wvel_del2            =   5.9040212362476E-06
(PID.TID 0000.0001) %MON dynstat_theta_max            =   2.9979984084225E+01
(PID.TID 0000.0001) %MON dynstat_theta_min            =  -2.0035599564458E+00
(PID.TID 0000.0001) %MON dynstat_theta_mean           =   3.5867044182682E+00
(PID.TID 0000.0001) %MON dynstat_theta_sd             =   4.3372266143183E+00
(PID.TID 0000.0001) %MON dynstat_theta_del2           =   1.3964023839872E-01
(PID.TID 0000.0001) %MON dynstat_salt_max             =   3.7381708001748E+01
(PID.TID 0000.0001) %MON dynstat_salt_min             =   2.9887224369130E+01
(PID.TID 0000.0001) %MON dynstat_salt_mean            =   3.4715915372045E+01
(PID.TID 0000.0001) %MON dynstat_salt_sd              =   2.9535174312398E-01
(PID.TID 0000.0001) %MON dynstat_salt_del2            =   2.5165363344175E-02
(PID.TID 0000.0001) %MON dynstat_sst_max              =   2.9979984084225E+01
(PID.TID 0000.0001) %MON dynstat_sst_min              =  -1.9208655957552E+00
(PID.TID 0000.0001) %MON dynstat_sst_mean             =   1.8686880214571E+01
(PID.TID 0000.0001) %MON dynstat_sst_sd               =   8.9443873044766E+00
(PID.TID 0000.0001) %MON dynstat_sst_del2             =   2.6599083983305E-01
(PID.TID 0000.0001) %MON dynstat_sss_max              =   3.7381707244639E+01
(PID.TID 0000.0001) %MON dynstat_sss_min              =   2.9887224369130E+01
(PID.TID 0000.0001) %MON dynstat_sss_mean             =   3.4837628721714E+01
(PID.TID 0000.0001) %MON dynstat_sss_sd               =   9.5490513973139E-01
(PID.TID 0000.0001) %MON dynstat_sss_del2             =   7.7686206173297E-02
(PID.TID 0000.0001) %MON extforcing_qnet_max          =   3.3606702677409E+02
(PID.TID 0000.0001) %MON extforcing_qnet_min          =  -1.7043973490397E+02
(PID.TID 0000.0001) %MON extforcing_qnet_mean         =  -1.2178534981930E+01
(PID.TID 0000.0001) %MON extforcing_qnet_sd           =   6.8564785019729E+01
(PID.TID 0000.0001) %MON extforcing_qnet_del2         =   8.1236584113866E+00
(PID.TID 0000.0001) %MON extforcing_qsw_max           =   0.0000000000000E+00
(PID.TID 0000.0001) %MON extforcing_qsw_min           =   0.0000000000000E+00
(PID.TID 0000.0001) %MON extforcing_qsw_mean          =   0.0000000000000E+00
(PID.TID 0000.0001) %MON extforcing_qsw_sd            =   0.0000000000000E+00
(PID.TID 0000.0001) %MON extforcing_qsw_del2          =   0.0000000000000E+00
(PID.TID 0000.0001) %MON extforcing_empmr_max         =   0.0000000000000E+00
(PID.TID 0000.0001) %MON extforcing_empmr_min         =   0.0000000000000E+00
(PID.TID 0000.0001) %MON extforcing_empmr_mean        =   0.0000000000000E+00
(PID.TID 0000.0001) %MON extforcing_empmr_sd          =   0.0000000000000E+00
(PID.TID 0000.0001) %MON extforcing_empmr_del2        =   0.0000000000000E+00
(PID.TID 0000.0001) %MON extforcing_fu_max            =   3.1523034572601E-01
(PID.TID 0000.0001) %MON extforcing_fu_min            =  -2.5880938669046E-01
(PID.TID 0000.0001) %MON extforcing_fu_mean           =   1.8384338332303E-02
(PID.TID 0000.0001) %MON extforcing_fu_sd             =   9.3654975852564E-02
(PID.TID 0000.0001) %MON extforcing_fu_del2           =   7.9759880590199E-03
(PID.TID 0000.0001) %MON extforcing_fv_max            =   1.6049519777298E-01
(PID.TID 0000.0001) %MON extforcing_fv_min            =  -1.8779096603394E-01
(PID.TID 0000.0001) %MON extforcing_fv_mean           =  -7.3001517407161E-03
(PID.TID 0000.0001) %MON extforcing_fv_sd             =   4.2910526443214E-02
(PID.TID 0000.0001) %MON extforcing_fv_del2           =   4.6914398230298E-03
(PID.TID 0000.0001) %MON advcfl_uvel_max              =   3.3139098528491E-02
(PID.TID 0000.0001) %MON advcfl_vvel_max              =   1.5473515346190E-02
(PID.TID 0000.0001) %MON advcfl_wvel_max              =   8.6529863658774E-02
(PID.TID 0000.0001) %MON advcfl_W_hf_max              =   8.9326987394737E-02
(PID.TID 0000.0001) %MON pe_b_mean                    =   3.1782980944433E-04
(PID.TID 0000.0001) %MON ke_max                       =   1.9716531232278E-02
(PID.TID 0000.0001) %MON ke_mean                      =   1.9189153321082E-04
(PID.TID 0000.0001) %MON ke_vol                       =   1.3226782436723E+18
(PID.TID 0000.0001) %MON vort_r_min                   =  -4.6481167676692E-07
(PID.TID 0000.0001) %MON vort_r_max                   =   3.9662205004694E-07
(PID.TID 0000.0001) %MON vort_a_mean                  =  -2.5205769064321E-05
(PID.TID 0000.0001) %MON vort_a_sd                    =   7.3403444944351E-05
(PID.TID 0000.0001) %MON vort_p_mean                  =  -3.1758669142789E-05
(PID.TID 0000.0001) %MON vort_p_sd                    =   1.3126403768761E-04
(PID.TID 0000.0001) %MON surfExpan_theta_mean         =   1.0110417133291E-05
(PID.TID 0000.0001) %MON surfExpan_salt_mean          =   1.7642986970862E-07
(PID.TID 0000.0001) // =======================================================
(PID.TID 0000.0001) // End MONITOR dynamic field statistics
(PID.TID 0000.0001) // =======================================================
time,SST,SSS,fu,fv,Q,E-P,i0,i1,a,b =   4.6224E+06 -4.3327E-01  3.4466E+01 -1.8051E-02 -1.2803E-02  2.3337E+02  0.0000E+00     2     3  2.8333E-01  7.1667E-01
time,fu0,fu1,fu =   4.6224E+06 -1.4435E-02 -2.7199E-02 -1.8051E-02  2.833333333333333E-01  7.166666666666667E-01
 cg2d: Sum(rhs),rhsMax =   2.25468255177219E-12  8.89641367024080E+00
(PID.TID 0000.0001)                    cg2d_init_res =    2.93515763221796E-01
(PID.TID 0000.0001)                       cg2d_iters =    24
(PID.TID 0000.0001)                         cg2d_res =    6.35250401639821E-14
(PID.TID 0000.0001) // =======================================================
(PID.TID 0000.0001) // Begin MONITOR dynamic field statistics
(PID.TID 0000.0001) // =======================================================
(PID.TID 0000.0001) %MON time_tsnumber                =                   108
(PID.TID 0000.0001) %MON time_secondsf                =   4.6656000000000E+06
(PID.TID 0000.0001) %MON dynstat_eta_max              =   1.0103442228857E+00
(PID.TID 0000.0001) %MON dynstat_eta_min              =  -1.5634063191129E+00
(PID.TID 0000.0001) %MON dynstat_eta_mean             =  -1.3778188713677E-15
(PID.TID 0000.0001) %MON dynstat_eta_sd               =   5.0006565468263E-01
(PID.TID 0000.0001) %MON dynstat_eta_del2             =   2.6535556373687E-02
(PID.TID 0000.0001) %MON dynstat_uvel_max             =   2.0277744523839E-01
(PID.TID 0000.0001) %MON dynstat_uvel_min             =  -1.3030275162127E-01
(PID.TID 0000.0001) %MON dynstat_uvel_mean            =   1.1229579233494E-03
(PID.TID 0000.0001) %MON dynstat_uvel_sd              =   1.5373993985434E-02
(PID.TID 0000.0001) %MON dynstat_uvel_del2            =   3.3945633391914E-03
(PID.TID 0000.0001) %MON dynstat_vvel_max             =   1.6057732899444E-01
(PID.TID 0000.0001) %MON dynstat_vvel_min             =  -1.3362741237342E-01
(PID.TID 0000.0001) %MON dynstat_vvel_mean            =   1.0622026749872E-03
(PID.TID 0000.0001) %MON dynstat_vvel_sd              =   1.3793487043695E-02
(PID.TID 0000.0001) %MON dynstat_vvel_del2            =   3.3728472584640E-03
(PID.TID 0000.0001) %MON dynstat_wvel_max             =   1.5166752821776E-04
(PID.TID 0000.0001) %MON dynstat_wvel_min             =  -2.1737446485877E-04
(PID.TID 0000.0001) %MON dynstat_wvel_mean            =   4.0959610038807E-22
(PID.TID 0000.0001) %MON dynstat_wvel_sd              =   1.8013056197144E-05
(PID.TID 0000.0001) %MON dynstat_wvel_del2            =   5.8792090022706E-06
(PID.TID 0000.0001) %MON dynstat_theta_max            =   2.9891070091029E+01
(PID.TID 0000.0001) %MON dynstat_theta_min            =  -2.0026060583072E+00
(PID.TID 0000.0001) %MON dynstat_theta_mean           =   3.5866262084795E+00
(PID.TID 0000.0001) %MON dynstat_theta_sd             =   4.3371403664824E+00
(PID.TID 0000.0001) %MON dynstat_theta_del2           =   1.3962843227333E-01
(PID.TID 0000.0001) %MON dynstat_salt_max             =   3.7381546557486E+01
(PID.TID 0000.0001) %MON dynstat_salt_min             =   2.9886723318907E+01
(PID.TID 0000.0001) %MON dynstat_salt_mean            =   3.4715914139495E+01
(PID.TID 0000.0001) %MON dynstat_salt_sd              =   2.9532832997922E-01
(PID.TID 0000.0001) %MON dynstat_salt_del2            =   2.5149421080789E-02
(PID.TID 0000.0001) %MON dynstat_sst_max              =   2.9891070091029E+01
(PID.TID 0000.0001) %MON dynstat_sst_min              =  -1.9201874556388E+00
(PID.TID 0000.0001) %MON dynstat_sst_mean             =   1.8690224990183E+01
(PID.TID 0000.0001) %MON dynstat_sst_sd               =   8.9462354235885E+00
(PID.TID 0000.0001) %MON dynstat_sst_del2             =   2.6581573371471E-01
(PID.TID 0000.0001) %MON dynstat_sss_max              =   3.7381545812620E+01
(PID.TID 0000.0001) %MON dynstat_sss_min              =   2.9886723318907E+01
(PID.TID 0000.0001) %MON dynstat_sss_mean             =   3.4837674907579E+01
(PID.TID 0000.0001) %MON dynstat_sss_sd               =   9.5475434056332E-01
(PID.TID 0000.0001) %MON dynstat_sss_del2             =   7.7623197715349E-02
(PID.TID 0000.0001) %MON extforcing_qnet_max          =   3.3466795094808E+02
(PID.TID 0000.0001) %MON extforcing_qnet_min          =  -1.7029009526571E+02
(PID.TID 0000.0001) %MON extforcing_qnet_mean         =  -1.2066865232117E+01
(PID.TID 0000.0001) %MON extforcing_qnet_sd           =   6.7908268160439E+01
(PID.TID 0000.0001) %MON extforcing_qnet_del2         =   8.1009652593210E+00
(PID.TID 0000.0001) %MON extforcing_qsw_max           =   0.0000000000000E+00
(PID.TID 0000.0001) %MON extforcing_qsw_min           =   0.0000000000000E+00
(PID.TID 0000.0001) %MON extforcing_qsw_mean          =   0.0000000000000E+00
(PID.TID 0000.0001) %MON extforcing_qsw_sd            =   0.0000000000000E+00
(PID.TID 0000.0001) %MON extforcing_qsw_del2          =   0.0000000000000E+00
(PID.TID 0000.0001) %MON extforcing_empmr_max         =   0.0000000000000E+00
(PID.TID 0000.0001) %MON extforcing_empmr_min         =   0.0000000000000E+00
(PID.TID 0000.0001) %MON extforcing_empmr_mean        =   0.0000000000000E+00
(PID.TID 0000.0001) %MON extforcing_empmr_sd          =   0.0000000000000E+00
(PID.TID 0000.0001) %MON extforcing_empmr_del2        =   0.0000000000000E+00
(PID.TID 0000.0001) %MON extforcing_fu_max            =   3.1589252203703E-01
(PID.TID 0000.0001) %MON extforcing_fu_min            =  -2.6150170142452E-01
(PID.TID 0000.0001) %MON extforcing_fu_mean           =   1.8431438127032E-02
(PID.TID 0000.0001) %MON extforcing_fu_sd             =   9.3740608414145E-02
(PID.TID 0000.0001) %MON extforcing_fu_del2           =   7.9808863881968E-03
(PID.TID 0000.0001) %MON extforcing_fv_max            =   1.5995652675629E-01
(PID.TID 0000.0001) %MON extforcing_fv_min            =  -1.8704794794321E-01
(PID.TID 0000.0001) %MON extforcing_fv_mean           =  -7.3053659157009E-03
(PID.TID 0000.0001) %MON extforcing_fv_sd             =   4.2810657499897E-02
(PID.TID 0000.0001) %MON extforcing_fv_del2           =   4.6745034700604E-03
(PID.TID 0000.0001) %MON advcfl_uvel_max              =   3.3512584142710E-02
(PID.TID 0000.0001) %MON advcfl_vvel_max              =   1.5598799836444E-02
(PID.TID 0000.0001) %MON advcfl_wvel_max              =   9.1912142169760E-02
(PID.TID 0000.0001) %MON advcfl_W_hf_max              =   9.5077994510750E-02
(PID.TID 0000.0001) %MON pe_b_mean                    =   3.1998915180352E-04
(PID.TID 0000.0001) %MON ke_max                       =   2.0231504741072E-02
(PID.TID 0000.0001) %MON ke_mean                      =   1.9387740627694E-04
(PID.TID 0000.0001) %MON ke_vol                       =   1.3226782436723E+18
(PID.TID 0000.0001) %MON vort_r_min                   =  -4.6544662001431E-07
(PID.TID 0000.0001) %MON vort_r_max                   =   3.9770863459189E-07
(PID.TID 0000.0001) %MON vort_a_mean                  =  -2.5205769071582E-05
(PID.TID 0000.0001) %MON vort_a_sd                    =   7.3403444058748E-05
(PID.TID 0000.0001) %MON vort_p_mean                  =  -3.1758669151937E-05
(PID.TID 0000.0001) %MON vort_p_sd                    =   1.3126406992671E-04
(PID.TID 0000.0001) %MON surfExpan_theta_mean         =   9.5050758002150E-06
(PID.TID 0000.0001) %MON surfExpan_salt_mean          =   1.2253547804668E-07
(PID.TID 0000.0001) // =======================================================
(PID.TID 0000.0001) // End MONITOR dynamic field statistics
(PID.TID 0000.0001) // =======================================================
time,SST,SSS,fu,fv,Q,E-P,i0,i1,a,b =   4.6656E+06 -4.2747E-01  3.4469E+01 -1.8264E-02 -1.2518E-02  2.3296E+02  0.0000E+00     2     3  3.0000E-01  7.0000E-01
time,fu0,fu1,fu =   4.6656E+06 -1.4435E-02 -2.7199E-02 -1.8264E-02  3.000000000000000E-01  7.000000000000000E-01
 cg2d: Sum(rhs),rhsMax =   2.32339147920868E-12  8.91497206305674E+00
(PID.TID 0000.0001)                    cg2d_init_res =    2.95628648521753E-01
(PID.TID 0000.0001)                       cg2d_iters =    24
(PID.TID 0000.0001)                         cg2d_res =    6.38071872074998E-14
(PID.TID 0000.0001) // =======================================================
(PID.TID 0000.0001) // Begin MONITOR dynamic field statistics
(PID.TID 0000.0001) // =======================================================
(PID.TID 0000.0001) %MON time_tsnumber                =                   109
(PID.TID 0000.0001) %MON time_secondsf                =   4.7088000000000E+06
(PID.TID 0000.0001) %MON dynstat_eta_max              =   9.9500811283217E-01
(PID.TID 0000.0001) %MON dynstat_eta_min              =  -1.5646899313720E+00
(PID.TID 0000.0001) %MON dynstat_eta_mean             =  -1.3000332390954E-15
(PID.TID 0000.0001) %MON dynstat_eta_sd               =   5.0174054666935E-01
(PID.TID 0000.0001) %MON dynstat_eta_del2             =   2.6624933452565E-02
(PID.TID 0000.0001) %MON dynstat_uvel_max             =   2.0358986296014E-01
(PID.TID 0000.0001) %MON dynstat_uvel_min             =  -1.3075253150588E-01
(PID.TID 0000.0001) %MON dynstat_uvel_mean            =   1.1428664855899E-03
(PID.TID 0000.0001) %MON dynstat_uvel_sd              =   1.5522645918971E-02
(PID.TID 0000.0001) %MON dynstat_uvel_del2            =   3.4005107989812E-03
(PID.TID 0000.0001) %MON dynstat_vvel_max             =   1.6171913549835E-01
(PID.TID 0000.0001) %MON dynstat_vvel_min             =  -1.3421102398416E-01
(PID.TID 0000.0001) %MON dynstat_vvel_mean            =   1.1334877592118E-03
(PID.TID 0000.0001) %MON dynstat_vvel_sd              =   1.3761276922274E-02
(PID.TID 0000.0001) %MON dynstat_vvel_del2            =   3.3649685901374E-03
(PID.TID 0000.0001) %MON dynstat_wvel_max             =   1.5290102013459E-04
(PID.TID 0000.0001) %MON dynstat_wvel_min             =  -2.1750217962150E-04
(PID.TID 0000.0001) %MON dynstat_wvel_mean            =   6.4560556839552E-22
(PID.TID 0000.0001) %MON dynstat_wvel_sd              =   1.7967129309775E-05
(PID.TID 0000.0001) %MON dynstat_wvel_del2            =   5.8574492709686E-06
(PID.TID 0000.0001) %MON dynstat_theta_max            =   2.9797117712449E+01
(PID.TID 0000.0001) %MON dynstat_theta_min            =  -2.0016588553479E+00
(PID.TID 0000.0001) %MON dynstat_theta_mean           =   3.5865544313584E+00
(PID.TID 0000.0001) %MON dynstat_theta_sd             =   4.3370826195273E+00
(PID.TID 0000.0001) %MON dynstat_theta_del2           =   1.3962559062225E-01
(PID.TID 0000.0001) %MON dynstat_salt_max             =   3.7381401628906E+01
(PID.TID 0000.0001) %MON dynstat_salt_min             =   2.9886212412828E+01
(PID.TID 0000.0001) %MON dynstat_salt_mean            =   3.4715913539699E+01
(PID.TID 0000.0001) %MON dynstat_salt_sd              =   2.9530328785458E-01
(PID.TID 0000.0001) %MON dynstat_salt_del2            =   2.5136932527805E-02
(PID.TID 0000.0001) %MON dynstat_sst_max              =   2.9797117712449E+01
(PID.TID 0000.0001) %MON dynstat_sst_min              =  -1.9196170785429E+00
(PID.TID 0000.0001) %MON dynstat_sst_mean             =   1.8693610934333E+01
(PID.TID 0000.0001) %MON dynstat_sst_sd               =   8.9482479605834E+00
(PID.TID 0000.0001) %MON dynstat_sst_del2             =   2.6562250556930E-01
(PID.TID 0000.0001) %MON dynstat_sss_max              =   3.7381400898439E+01
(PID.TID 0000.0001) %MON dynstat_sss_min              =   2.9886212412828E+01
(PID.TID 0000.0001) %MON dynstat_sss_mean             =   3.4837734471085E+01
(PID.TID 0000.0001) %MON dynstat_sss_sd               =   9.5460438268619E-01
(PID.TID 0000.0001) %MON dynstat_sss_del2             =   7.7568634864787E-02
(PID.TID 0000.0001) %MON extforcing_qnet_max          =   3.3326887512207E+02
(PID.TID 0000.0001) %MON extforcing_qnet_min          =  -1.7014045562744E+02
(PID.TID 0000.0001) %MON extforcing_qnet_mean         =  -1.1955195482304E+01
(PID.TID 0000.0001) %MON extforcing_qnet_sd           =   6.7256363910996E+01
(PID.TID 0000.0001) %MON extforcing_qnet_del2         =   8.0793316151235E+00
(PID.TID 0000.0001) %MON extforcing_qsw_max           =   0.0000000000000E+00
(PID.TID 0000.0001) %MON extforcing_qsw_min           =   0.0000000000000E+00
(PID.TID 0000.0001) %MON extforcing_qsw_mean          =   0.0000000000000E+00
(PID.TID 0000.0001) %MON extforcing_qsw_sd            =   0.0000000000000E+00
(PID.TID 0000.0001) %MON extforcing_qsw_del2          =   0.0000000000000E+00
(PID.TID 0000.0001) %MON extforcing_empmr_max         =   0.0000000000000E+00
(PID.TID 0000.0001) %MON extforcing_empmr_min         =   0.0000000000000E+00
(PID.TID 0000.0001) %MON extforcing_empmr_mean        =   0.0000000000000E+00
(PID.TID 0000.0001) %MON extforcing_empmr_sd          =   0.0000000000000E+00
(PID.TID 0000.0001) %MON extforcing_empmr_del2        =   0.0000000000000E+00
(PID.TID 0000.0001) %MON extforcing_fu_max            =   3.1678166687489E-01
(PID.TID 0000.0001) %MON extforcing_fu_min            =  -2.6419401615858E-01
(PID.TID 0000.0001) %MON extforcing_fu_mean           =   1.8478537921761E-02
(PID.TID 0000.0001) %MON extforcing_fu_sd             =   9.3831537675814E-02
(PID.TID 0000.0001) %MON extforcing_fu_del2           =   7.9876547444275E-03
(PID.TID 0000.0001) %MON extforcing_fv_max            =   1.5941785573959E-01
(PID.TID 0000.0001) %MON extforcing_fv_min            =  -1.8630492985249E-01
(PID.TID 0000.0001) %MON extforcing_fv_mean           =  -7.3105800906856E-03
(PID.TID 0000.0001) %MON extforcing_fv_sd             =   4.2714976969337E-02
(PID.TID 0000.0001) %MON extforcing_fv_del2           =   4.6582878221569E-03
(PID.TID 0000.0001) %MON advcfl_uvel_max              =   3.3646850639791E-02
(PID.TID 0000.0001) %MON advcfl_vvel_max              =   1.5709717182111E-02
(PID.TID 0000.0001) %MON advcfl_wvel_max              =   9.5854354473891E-02
(PID.TID 0000.0001) %MON advcfl_W_hf_max              =   9.8850369887897E-02
(PID.TID 0000.0001) %MON pe_b_mean                    =   3.2213624907802E-04
(PID.TID 0000.0001) %MON ke_max                       =   2.0589580352429E-02
(PID.TID 0000.0001) %MON ke_mean                      =   1.9565631124800E-04
(PID.TID 0000.0001) %MON ke_vol                       =   1.3226782436723E+18
(PID.TID 0000.0001) %MON vort_r_min                   =  -4.6666616126115E-07
(PID.TID 0000.0001) %MON vort_r_max                   =   4.0645657763182E-07
(PID.TID 0000.0001) %MON vort_a_mean                  =  -2.5205769078815E-05
(PID.TID 0000.0001) %MON vort_a_sd                    =   7.3403444069480E-05
(PID.TID 0000.0001) %MON vort_p_mean                  =  -3.1758669161050E-05
(PID.TID 0000.0001) %MON vort_p_sd                    =   1.3126409842815E-04
(PID.TID 0000.0001) %MON surfExpan_theta_mean         =   8.8894784350350E-06
(PID.TID 0000.0001) %MON surfExpan_salt_mean          =   6.5256640013920E-08
(PID.TID 0000.0001) // =======================================================
(PID.TID 0000.0001) // End MONITOR dynamic field statistics
(PID.TID 0000.0001) // =======================================================
time,SST,SSS,fu,fv,Q,E-P,i0,i1,a,b =   4.7088E+06 -4.2167E-01  3.4471E+01 -1.8477E-02 -1.2234E-02  2.3254E+02  0.0000E+00     2     3  3.1667E-01  6.8333E-01
time,fu0,fu1,fu =   4.7088E+06 -1.4435E-02 -2.7199E-02 -1.8477E-02  3.166666666666667E-01  6.833333333333333E-01
 cg2d: Sum(rhs),rhsMax =   2.58842947076232E-12  8.91793954410515E+00
(PID.TID 0000.0001)                    cg2d_init_res =    2.96393946208876E-01
(PID.TID 0000.0001)                       cg2d_iters =    24
(PID.TID 0000.0001)                         cg2d_res =    6.40247565135032E-14
(PID.TID 0000.0001) // =======================================================
(PID.TID 0000.0001) // Begin MONITOR dynamic field statistics
(PID.TID 0000.0001) // =======================================================
(PID.TID 0000.0001) %MON time_tsnumber                =                   110
(PID.TID 0000.0001) %MON time_secondsf                =   4.7520000000000E+06
(PID.TID 0000.0001) %MON dynstat_eta_max              =   9.9316341793005E-01
(PID.TID 0000.0001) %MON dynstat_eta_min              =  -1.5656766630863E+00
(PID.TID 0000.0001) %MON dynstat_eta_mean             =  -1.2947055529847E-15
(PID.TID 0000.0001) %MON dynstat_eta_sd               =   5.0340227954639E-01
(PID.TID 0000.0001) %MON dynstat_eta_del2             =   2.6713057324472E-02
(PID.TID 0000.0001) %MON dynstat_uvel_max             =   2.0294901661465E-01
(PID.TID 0000.0001) %MON dynstat_uvel_min             =  -1.3115198076477E-01
(PID.TID 0000.0001) %MON dynstat_uvel_mean            =   1.1644328684256E-03
(PID.TID 0000.0001) %MON dynstat_uvel_sd              =   1.5652364988414E-02
(PID.TID 0000.0001) %MON dynstat_uvel_del2            =   3.4060633974899E-03
(PID.TID 0000.0001) %MON dynstat_vvel_max             =   1.6270637224221E-01
(PID.TID 0000.0001) %MON dynstat_vvel_min             =  -1.3450529613545E-01
(PID.TID 0000.0001) %MON dynstat_vvel_mean            =   1.1990232075871E-03
(PID.TID 0000.0001) %MON dynstat_vvel_sd              =   1.3729626755839E-02
(PID.TID 0000.0001) %MON dynstat_vvel_del2            =   3.3587448600119E-03
(PID.TID 0000.0001) %MON dynstat_wvel_max             =   1.5406339178251E-04
(PID.TID 0000.0001) %MON dynstat_wvel_min             =  -2.1680954548064E-04
(PID.TID 0000.0001) %MON dynstat_wvel_mean            =   3.2492444956446E-22
(PID.TID 0000.0001) %MON dynstat_wvel_sd              =   1.7926379236850E-05
(PID.TID 0000.0001) %MON dynstat_wvel_del2            =   5.8379691830366E-06
(PID.TID 0000.0001) %MON dynstat_theta_max            =   2.9736382233931E+01
(PID.TID 0000.0001) %MON dynstat_theta_min            =  -2.0007075965062E+00
(PID.TID 0000.0001) %MON dynstat_theta_mean           =   3.5864891692690E+00
(PID.TID 0000.0001) %MON dynstat_theta_sd             =   4.3370526334068E+00
(PID.TID 0000.0001) %MON dynstat_theta_del2           =   1.3962406424072E-01
(PID.TID 0000.0001) %MON dynstat_salt_max             =   3.7381267045841E+01
(PID.TID 0000.0001) %MON dynstat_salt_min             =   2.9885709485837E+01
(PID.TID 0000.0001) %MON dynstat_salt_mean            =   3.4715913604708E+01
(PID.TID 0000.0001) %MON dynstat_salt_sd              =   2.9527680157520E-01
(PID.TID 0000.0001) %MON dynstat_salt_del2            =   2.5123755429386E-02
(PID.TID 0000.0001) %MON dynstat_sst_max              =   2.9736382233931E+01
(PID.TID 0000.0001) %MON dynstat_sst_min              =  -1.9191531048943E+00
(PID.TID 0000.0001) %MON dynstat_sst_mean             =   1.8696986598094E+01
(PID.TID 0000.0001) %MON dynstat_sst_sd               =   8.9505718704636E+00
(PID.TID 0000.0001) %MON dynstat_sst_del2             =   2.6549612383060E-01
(PID.TID 0000.0001) %MON dynstat_sss_max              =   3.7381266332210E+01
(PID.TID 0000.0001) %MON dynstat_sss_min              =   2.9885709485837E+01
(PID.TID 0000.0001) %MON dynstat_sss_mean             =   3.4837810937456E+01
(PID.TID 0000.0001) %MON dynstat_sss_sd               =   9.5445379046274E-01
(PID.TID 0000.0001) %MON dynstat_sss_del2             =   7.7502830367237E-02
(PID.TID 0000.0001) %MON extforcing_qnet_max          =   3.3186979929606E+02
(PID.TID 0000.0001) %MON extforcing_qnet_min          =  -1.6999081598918E+02
(PID.TID 0000.0001) %MON extforcing_qnet_mean         =  -1.1843525732490E+01
(PID.TID 0000.0001) %MON extforcing_qnet_sd           =   6.6609207702359E+01
(PID.TID 0000.0001) %MON extforcing_qnet_del2         =   8.0578673950212E+00
(PID.TID 0000.0001) %MON extforcing_qsw_max           =   0.0000000000000E+00
(PID.TID 0000.0001) %MON extforcing_qsw_min           =   0.0000000000000E+00
(PID.TID 0000.0001) %MON extforcing_qsw_mean          =   0.0000000000000E+00
(PID.TID 0000.0001) %MON extforcing_qsw_sd            =   0.0000000000000E+00
(PID.TID 0000.0001) %MON extforcing_qsw_del2          =   0.0000000000000E+00
(PID.TID 0000.0001) %MON extforcing_empmr_max         =   0.0000000000000E+00
(PID.TID 0000.0001) %MON extforcing_empmr_min         =   0.0000000000000E+00
(PID.TID 0000.0001) %MON extforcing_empmr_mean        =   0.0000000000000E+00
(PID.TID 0000.0001) %MON extforcing_empmr_sd          =   0.0000000000000E+00
(PID.TID 0000.0001) %MON extforcing_empmr_del2        =   0.0000000000000E+00
(PID.TID 0000.0001) %MON extforcing_fu_max            =   3.1775237470865E-01
(PID.TID 0000.0001) %MON extforcing_fu_min            =  -2.6688633089264E-01
(PID.TID 0000.0001) %MON extforcing_fu_mean           =   1.8525637716491E-02
(PID.TID 0000.0001) %MON extforcing_fu_sd             =   9.3927748254735E-02
(PID.TID 0000.0001) %MON extforcing_fu_del2           =   7.9966285854764E-03
(PID.TID 0000.0001) %MON extforcing_fv_max            =   1.5887918472290E-01
(PID.TID 0000.0001) %MON extforcing_fv_min            =  -1.8556191176176E-01
(PID.TID 0000.0001) %MON extforcing_fv_mean           =  -7.3157942656703E-03
(PID.TID 0000.0001) %MON extforcing_fv_sd             =   4.2623513057775E-02
(PID.TID 0000.0001) %MON extforcing_fv_del2           =   4.6433498639147E-03
(PID.TID 0000.0001) %MON advcfl_uvel_max              =   3.3540939368197E-02
(PID.TID 0000.0001) %MON advcfl_vvel_max              =   1.5805619315090E-02
(PID.TID 0000.0001) %MON advcfl_wvel_max              =   9.7747623840847E-02
(PID.TID 0000.0001) %MON advcfl_W_hf_max              =   1.0059107194301E-01
(PID.TID 0000.0001) %MON pe_b_mean                    =   3.2427357222899E-04
(PID.TID 0000.0001) %MON ke_max                       =   2.0788954181960E-02
(PID.TID 0000.0001) %MON ke_mean                      =   1.9719416963070E-04
(PID.TID 0000.0001) %MON ke_vol                       =   1.3226782436723E+18
(PID.TID 0000.0001) %MON vort_r_min                   =  -4.6849820125818E-07
(PID.TID 0000.0001) %MON vort_r_max                   =   4.1808953502101E-07
(PID.TID 0000.0001) %MON vort_a_mean                  =  -2.5205769085737E-05
(PID.TID 0000.0001) %MON vort_a_sd                    =   7.3403444807049E-05
(PID.TID 0000.0001) %MON vort_p_mean                  =  -3.1758669169772E-05
(PID.TID 0000.0001) %MON vort_p_sd                    =   1.3126412153838E-04
(PID.TID 0000.0001) %MON surfExpan_theta_mean         =   8.2703258376622E-06
(PID.TID 0000.0001) %MON surfExpan_salt_mean          =   5.4688855676853E-09
(PID.TID 0000.0001) // =======================================================
(PID.TID 0000.0001) // End MONITOR dynamic field statistics
(PID.TID 0000.0001) // =======================================================
time,SST,SSS,fu,fv,Q,E-P,i0,i1,a,b =   4.7520E+06 -4.1587E-01  3.4474E+01 -1.8689E-02 -1.1950E-02  2.3212E+02  0.0000E+00     2     3  3.3333E-01  6.6667E-01
time,fu0,fu1,fu =   4.7520E+06 -1.4435E-02 -2.7199E-02 -1.8689E-02  3.333333333333333E-01  6.666666666666667E-01
 cg2d: Sum(rhs),rhsMax =   2.42276337880654E-12  8.90561083744929E+00
(PID.TID 0000.0001)                    cg2d_init_res =    2.95647041729830E-01
(PID.TID 0000.0001)                       cg2d_iters =    24
(PID.TID 0000.0001)                         cg2d_res =    6.40708934233569E-14
(PID.TID 0000.0001) // =======================================================
(PID.TID 0000.0001) // Begin MONITOR dynamic field statistics
(PID.TID 0000.0001) // =======================================================
(PID.TID 0000.0001) %MON time_tsnumber                =                   111
(PID.TID 0000.0001) %MON time_secondsf                =   4.7952000000000E+06
(PID.TID 0000.0001) %MON dynstat_eta_max              =   9.9034000305219E-01
(PID.TID 0000.0001) %MON dynstat_eta_min              =  -1.5663654533338E+00
(PID.TID 0000.0001) %MON dynstat_eta_mean             =  -1.7709285234219E-15
(PID.TID 0000.0001) %MON dynstat_eta_sd               =   5.0505060864162E-01
(PID.TID 0000.0001) %MON dynstat_eta_del2             =   2.6790100932628E-02
(PID.TID 0000.0001) %MON dynstat_uvel_max             =   2.0087859357576E-01
(PID.TID 0000.0001) %MON dynstat_uvel_min             =  -1.3150175102081E-01
(PID.TID 0000.0001) %MON dynstat_uvel_mean            =   1.1867090351886E-03
(PID.TID 0000.0001) %MON dynstat_uvel_sd              =   1.5762723766892E-02
(PID.TID 0000.0001) %MON dynstat_uvel_del2            =   3.4103265558390E-03
(PID.TID 0000.0001) %MON dynstat_vvel_max             =   1.6353313137607E-01
(PID.TID 0000.0001) %MON dynstat_vvel_min             =  -1.3451494360275E-01
(PID.TID 0000.0001) %MON dynstat_vvel_mean            =   1.2585205820987E-03
(PID.TID 0000.0001) %MON dynstat_vvel_sd              =   1.3697723806727E-02
(PID.TID 0000.0001) %MON dynstat_vvel_del2            =   3.3534350153801E-03
(PID.TID 0000.0001) %MON dynstat_wvel_max             =   1.5512188410267E-04
(PID.TID 0000.0001) %MON dynstat_wvel_min             =  -2.1530340352654E-04
(PID.TID 0000.0001) %MON dynstat_wvel_mean            =  -2.9585189980991E-22
(PID.TID 0000.0001) %MON dynstat_wvel_sd              =   1.7889097917512E-05
(PID.TID 0000.0001) %MON dynstat_wvel_del2            =   5.8180578160472E-06
(PID.TID 0000.0001) %MON dynstat_theta_max            =   2.9740332912239E+01
(PID.TID 0000.0001) %MON dynstat_theta_min            =  -1.9997405184940E+00
(PID.TID 0000.0001) %MON dynstat_theta_mean           =   3.5864304196425E+00
(PID.TID 0000.0001) %MON dynstat_theta_sd             =   4.3370491415412E+00
(PID.TID 0000.0001) %MON dynstat_theta_del2           =   1.3964548916701E-01
(PID.TID 0000.0001) %MON dynstat_salt_max             =   3.7381136313578E+01
(PID.TID 0000.0001) %MON dynstat_salt_min             =   2.9885232029519E+01
(PID.TID 0000.0001) %MON dynstat_salt_mean            =   3.4715914356188E+01
(PID.TID 0000.0001) %MON dynstat_salt_sd              =   2.9524916672942E-01
(PID.TID 0000.0001) %MON dynstat_salt_del2            =   2.5113703714080E-02
(PID.TID 0000.0001) %MON dynstat_sst_max              =   2.9740332912239E+01
(PID.TID 0000.0001) %MON dynstat_sst_min              =  -1.9187890440937E+00
(PID.TID 0000.0001) %MON dynstat_sst_mean             =   1.8700281824968E+01
(PID.TID 0000.0001) %MON dynstat_sst_sd               =   8.9531238179004E+00
(PID.TID 0000.0001) %MON dynstat_sst_del2             =   2.6553687328870E-01
(PID.TID 0000.0001) %MON dynstat_sss_max              =   3.7381135619311E+01
(PID.TID 0000.0001) %MON dynstat_sss_min              =   2.9885232029519E+01
(PID.TID 0000.0001) %MON dynstat_sss_mean             =   3.4837879695164E+01
(PID.TID 0000.0001) %MON dynstat_sss_sd               =   9.5429356253940E-01
(PID.TID 0000.0001) %MON dynstat_sss_del2             =   7.7462784941971E-02
(PID.TID 0000.0001) %MON extforcing_qnet_max          =   3.3047072347005E+02
(PID.TID 0000.0001) %MON extforcing_qnet_min          =  -1.6984117635091E+02
(PID.TID 0000.0001) %MON extforcing_qnet_mean         =  -1.1731855982677E+01
(PID.TID 0000.0001) %MON extforcing_qnet_sd           =   6.5966939273954E+01
(PID.TID 0000.0001) %MON extforcing_qnet_del2         =   8.0368369786323E+00
(PID.TID 0000.0001) %MON extforcing_qsw_max           =   0.0000000000000E+00
(PID.TID 0000.0001) %MON extforcing_qsw_min           =   0.0000000000000E+00
(PID.TID 0000.0001) %MON extforcing_qsw_mean          =   0.0000000000000E+00
(PID.TID 0000.0001) %MON extforcing_qsw_sd            =   0.0000000000000E+00
(PID.TID 0000.0001) %MON extforcing_qsw_del2          =   0.0000000000000E+00
(PID.TID 0000.0001) %MON extforcing_empmr_max         =   0.0000000000000E+00
(PID.TID 0000.0001) %MON extforcing_empmr_min         =   0.0000000000000E+00
(PID.TID 0000.0001) %MON extforcing_empmr_mean        =   0.0000000000000E+00
(PID.TID 0000.0001) %MON extforcing_empmr_sd          =   0.0000000000000E+00
(PID.TID 0000.0001) %MON extforcing_empmr_del2        =   0.0000000000000E+00
(PID.TID 0000.0001) %MON extforcing_fu_max            =   3.1872308254242E-01
(PID.TID 0000.0001) %MON extforcing_fu_min            =  -2.6957864562670E-01
(PID.TID 0000.0001) %MON extforcing_fu_mean           =   1.8572737511220E-02
(PID.TID 0000.0001) %MON extforcing_fu_sd             =   9.4029223939401E-02
(PID.TID 0000.0001) %MON extforcing_fu_del2           =   8.0081913399687E-03
(PID.TID 0000.0001) %MON extforcing_fv_max            =   1.5834051370621E-01
(PID.TID 0000.0001) %MON extforcing_fv_min            =  -1.8481889367104E-01
(PID.TID 0000.0001) %MON extforcing_fv_mean           =  -7.3210084406550E-03
(PID.TID 0000.0001) %MON extforcing_fv_sd             =   4.2536292965649E-02
(PID.TID 0000.0001) %MON extforcing_fv_del2           =   4.6293870021762E-03
(PID.TID 0000.0001) %MON advcfl_uvel_max              =   3.3198765088310E-02
(PID.TID 0000.0001) %MON advcfl_vvel_max              =   1.5885932335133E-02
(PID.TID 0000.0001) %MON advcfl_wvel_max              =   9.7585905813018E-02
(PID.TID 0000.0001) %MON advcfl_W_hf_max              =   1.0029568422840E-01
(PID.TID 0000.0001) %MON pe_b_mean                    =   3.2640063711811E-04
(PID.TID 0000.0001) %MON ke_max                       =   2.0830616847988E-02
(PID.TID 0000.0001) %MON ke_mean                      =   1.9846585479602E-04
(PID.TID 0000.0001) %MON ke_vol                       =   1.3226782436723E+18
(PID.TID 0000.0001) %MON vort_r_min                   =  -4.7095133858756E-07
(PID.TID 0000.0001) %MON vort_r_max                   =   4.2885864153996E-07
(PID.TID 0000.0001) %MON vort_a_mean                  =  -2.5205769092079E-05
(PID.TID 0000.0001) %MON vort_a_sd                    =   7.3403446090708E-05
(PID.TID 0000.0001) %MON vort_p_mean                  =  -3.1758669177763E-05
(PID.TID 0000.0001) %MON vort_p_sd                    =   1.3126413775554E-04
(PID.TID 0000.0001) %MON surfExpan_theta_mean         =   7.6540079414015E-06
(PID.TID 0000.0001) %MON surfExpan_salt_mean          =  -5.5936611574361E-08
(PID.TID 0000.0001) // =======================================================
(PID.TID 0000.0001) // End MONITOR dynamic field statistics
(PID.TID 0000.0001) // =======================================================
time,SST,SSS,fu,fv,Q,E-P,i0,i1,a,b =   4.7952E+06 -4.1007E-01  3.4476E+01 -1.8902E-02 -1.1665E-02  2.3170E+02  0.0000E+00     2     3  3.5000E-01  6.5000E-01
time,fu0,fu1,fu =   4.7952E+06 -1.4435E-02 -2.7199E-02 -1.8902E-02  3.500000000000000E-01  6.500000000000000E-01
 cg2d: Sum(rhs),rhsMax =   2.82632944825778E-12  8.87885342559641E+00
(PID.TID 0000.0001)                    cg2d_init_res =    2.93359622344558E-01
(PID.TID 0000.0001)                       cg2d_iters =    24
(PID.TID 0000.0001)                         cg2d_res =    6.38331789227828E-14
(PID.TID 0000.0001) // =======================================================
(PID.TID 0000.0001) // Begin MONITOR dynamic field statistics
(PID.TID 0000.0001) // =======================================================
(PID.TID 0000.0001) %MON time_tsnumber                =                   112
(PID.TID 0000.0001) %MON time_secondsf                =   4.8384000000000E+06
(PID.TID 0000.0001) %MON dynstat_eta_max              =   9.8652994039012E-01
(PID.TID 0000.0001) %MON dynstat_eta_min              =  -1.5667110806612E+00
(PID.TID 0000.0001) %MON dynstat_eta_mean             =  -1.4089005779870E-15
(PID.TID 0000.0001) %MON dynstat_eta_sd               =   5.0668300729092E-01
(PID.TID 0000.0001) %MON dynstat_eta_del2             =   2.6844201050961E-02
(PID.TID 0000.0001) %MON dynstat_uvel_max             =   1.9743111735294E-01
(PID.TID 0000.0001) %MON dynstat_uvel_min             =  -1.3180308801859E-01
(PID.TID 0000.0001) %MON dynstat_uvel_mean            =   1.2087652016349E-03
(PID.TID 0000.0001) %MON dynstat_uvel_sd              =   1.5853945158825E-02
(PID.TID 0000.0001) %MON dynstat_uvel_del2            =   3.4133546641421E-03
(PID.TID 0000.0001) %MON dynstat_vvel_max             =   1.6419433340946E-01
(PID.TID 0000.0001) %MON dynstat_vvel_min             =  -1.3424761901767E-01
(PID.TID 0000.0001) %MON dynstat_vvel_mean            =   1.3118444523804E-03
(PID.TID 0000.0001) %MON dynstat_vvel_sd              =   1.3664645567060E-02
(PID.TID 0000.0001) %MON dynstat_vvel_del2            =   3.3477465954352E-03
(PID.TID 0000.0001) %MON dynstat_wvel_max             =   1.5604424813865E-04
(PID.TID 0000.0001) %MON dynstat_wvel_min             =  -2.1300777291386E-04
(PID.TID 0000.0001) %MON dynstat_wvel_mean            =   3.4922611935929E-22
(PID.TID 0000.0001) %MON dynstat_wvel_sd              =   1.7853771914626E-05
(PID.TID 0000.0001) %MON dynstat_wvel_del2            =   5.7990433816521E-06
(PID.TID 0000.0001) %MON dynstat_theta_max            =   2.9744270876186E+01
(PID.TID 0000.0001) %MON dynstat_theta_min            =  -1.9987457792380E+00
(PID.TID 0000.0001) %MON dynstat_theta_mean           =   3.5863781143925E+00
(PID.TID 0000.0001) %MON dynstat_theta_sd             =   4.3370706784615E+00
(PID.TID 0000.0001) %MON dynstat_theta_del2           =   1.3965688255115E-01
(PID.TID 0000.0001) %MON dynstat_salt_max             =   3.7381002864707E+01
(PID.TID 0000.0001) %MON dynstat_salt_min             =   2.9884796423226E+01
(PID.TID 0000.0001) %MON dynstat_salt_mean            =   3.4715915807160E+01
(PID.TID 0000.0001) %MON dynstat_salt_sd              =   2.9522079544620E-01
(PID.TID 0000.0001) %MON dynstat_salt_del2            =   2.5104755803542E-02
(PID.TID 0000.0001) %MON dynstat_sst_max              =   2.9744270876186E+01
(PID.TID 0000.0001) %MON dynstat_sst_min              =  -1.9185137193121E+00
(PID.TID 0000.0001) %MON dynstat_sst_mean             =   1.8703439054899E+01
(PID.TID 0000.0001) %MON dynstat_sst_sd               =   8.9560372418465E+00
(PID.TID 0000.0001) %MON dynstat_sst_del2             =   2.6552070757112E-01
(PID.TID 0000.0001) %MON dynstat_sss_max              =   3.7381002192234E+01
(PID.TID 0000.0001) %MON dynstat_sss_min              =   2.9884796423226E+01
(PID.TID 0000.0001) %MON dynstat_sss_mean             =   3.4837945639738E+01
(PID.TID 0000.0001) %MON dynstat_sss_sd               =   9.5415074043346E-01
(PID.TID 0000.0001) %MON dynstat_sss_del2             =   7.7421379679129E-02
(PID.TID 0000.0001) %MON extforcing_qnet_max          =   3.2907164764404E+02
(PID.TID 0000.0001) %MON extforcing_qnet_min          =  -1.6969153671265E+02
(PID.TID 0000.0001) %MON extforcing_qnet_mean         =  -1.1620186232864E+01
(PID.TID 0000.0001) %MON extforcing_qnet_sd           =   6.5329702783960E+01
(PID.TID 0000.0001) %MON extforcing_qnet_del2         =   8.0171068176676E+00
(PID.TID 0000.0001) %MON extforcing_qsw_max           =   0.0000000000000E+00
(PID.TID 0000.0001) %MON extforcing_qsw_min           =   0.0000000000000E+00
(PID.TID 0000.0001) %MON extforcing_qsw_mean          =   0.0000000000000E+00
(PID.TID 0000.0001) %MON extforcing_qsw_sd            =   0.0000000000000E+00
(PID.TID 0000.0001) %MON extforcing_qsw_del2          =   0.0000000000000E+00
(PID.TID 0000.0001) %MON extforcing_empmr_max         =   0.0000000000000E+00
(PID.TID 0000.0001) %MON extforcing_empmr_min         =   0.0000000000000E+00
(PID.TID 0000.0001) %MON extforcing_empmr_mean        =   0.0000000000000E+00
(PID.TID 0000.0001) %MON extforcing_empmr_sd          =   0.0000000000000E+00
(PID.TID 0000.0001) %MON extforcing_empmr_del2        =   0.0000000000000E+00
(PID.TID 0000.0001) %MON extforcing_fu_max            =   3.1969379037619E-01
(PID.TID 0000.0001) %MON extforcing_fu_min            =  -2.7227096036077E-01
(PID.TID 0000.0001) %MON extforcing_fu_mean           =   1.8619837305949E-02
(PID.TID 0000.0001) %MON extforcing_fu_sd             =   9.4135947702940E-02
(PID.TID 0000.0001) %MON extforcing_fu_del2           =   8.0208451575378E-03
(PID.TID 0000.0001) %MON extforcing_fv_max            =   1.5780184268951E-01
(PID.TID 0000.0001) %MON extforcing_fv_min            =  -1.8407587558031E-01
(PID.TID 0000.0001) %MON extforcing_fv_mean           =  -7.3262226156398E-03
(PID.TID 0000.0001) %MON extforcing_fv_sd             =   4.2453342849657E-02
(PID.TID 0000.0001) %MON extforcing_fv_del2           =   4.6175031728017E-03
(PID.TID 0000.0001) %MON advcfl_uvel_max              =   3.2629008245475E-02
(PID.TID 0000.0001) %MON advcfl_vvel_max              =   1.5950162810474E-02
(PID.TID 0000.0001) %MON advcfl_wvel_max              =   9.5411880186429E-02
(PID.TID 0000.0001) %MON advcfl_W_hf_max              =   9.8007819939642E-02
(PID.TID 0000.0001) %MON pe_b_mean                    =   3.2851399772089E-04
(PID.TID 0000.0001) %MON ke_max                       =   2.0718052574434E-02
(PID.TID 0000.0001) %MON ke_mean                      =   1.9945535074243E-04
(PID.TID 0000.0001) %MON ke_vol                       =   1.3226782436723E+18
(PID.TID 0000.0001) %MON vort_r_min                   =  -4.7401400874120E-07
(PID.TID 0000.0001) %MON vort_r_max                   =   4.3845607023763E-07
(PID.TID 0000.0001) %MON vort_a_mean                  =  -2.5205769097599E-05
(PID.TID 0000.0001) %MON vort_a_sd                    =   7.3403447734208E-05
(PID.TID 0000.0001) %MON vort_p_mean                  =  -3.1758669184718E-05
(PID.TID 0000.0001) %MON vort_p_sd                    =   1.3126414579258E-04
(PID.TID 0000.0001) %MON surfExpan_theta_mean         =   7.0474422020121E-06
(PID.TID 0000.0001) %MON surfExpan_salt_mean          =  -1.1831890037309E-07
(PID.TID 0000.0001) // =======================================================
(PID.TID 0000.0001) // End MONITOR dynamic field statistics
(PID.TID 0000.0001) // =======================================================
time,SST,SSS,fu,fv,Q,E-P,i0,i1,a,b =   4.8384E+06 -4.0427E-01  3.4479E+01 -1.9115E-02 -1.1381E-02  2.3128E+02  0.0000E+00     2     3  3.6667E-01  6.3333E-01
time,fu0,fu1,fu =   4.8384E+06 -1.4435E-02 -2.7199E-02 -1.9115E-02  3.666666666666666E-01  6.333333333333333E-01
 cg2d: Sum(rhs),rhsMax =   2.71376671134860E-12  8.83905908124474E+00
(PID.TID 0000.0001)                    cg2d_init_res =    2.89634664792608E-01
(PID.TID 0000.0001)                       cg2d_iters =    24
(PID.TID 0000.0001)                         cg2d_res =    6.32257491291359E-14
(PID.TID 0000.0001) // =======================================================
(PID.TID 0000.0001) // Begin MONITOR dynamic field statistics
(PID.TID 0000.0001) // =======================================================
(PID.TID 0000.0001) %MON time_tsnumber                =                   113
(PID.TID 0000.0001) %MON time_secondsf                =   4.8816000000000E+06
(PID.TID 0000.0001) %MON dynstat_eta_max              =   9.8174763678703E-01
(PID.TID 0000.0001) %MON dynstat_eta_min              =  -1.5666276930756E+00
(PID.TID 0000.0001) %MON dynstat_eta_mean             =  -1.7133074401741E-15
(PID.TID 0000.0001) %MON dynstat_eta_sd               =   5.0829498856304E-01
(PID.TID 0000.0001) %MON dynstat_eta_del2             =   2.6888387856627E-02
(PID.TID 0000.0001) %MON dynstat_uvel_max             =   1.9268668165995E-01
(PID.TID 0000.0001) %MON dynstat_uvel_min             =  -1.3205773469634E-01
(PID.TID 0000.0001) %MON dynstat_uvel_mean            =   1.2297069156782E-03
(PID.TID 0000.0001) %MON dynstat_uvel_sd              =   1.5926756539613E-02
(PID.TID 0000.0001) %MON dynstat_uvel_del2            =   3.4169599786895E-03
(PID.TID 0000.0001) %MON dynstat_vvel_max             =   1.6468576864910E-01
(PID.TID 0000.0001) %MON dynstat_vvel_min             =  -1.3371341666239E-01
(PID.TID 0000.0001) %MON dynstat_vvel_mean            =   1.3590070830394E-03
(PID.TID 0000.0001) %MON dynstat_vvel_sd              =   1.3629471439359E-02
(PID.TID 0000.0001) %MON dynstat_vvel_del2            =   3.3431191059670E-03
(PID.TID 0000.0001) %MON dynstat_wvel_max             =   1.5679922383026E-04
(PID.TID 0000.0001) %MON dynstat_wvel_min             =  -2.0996335382645E-04
(PID.TID 0000.0001) %MON dynstat_wvel_mean            =   5.5130614419166E-22
(PID.TID 0000.0001) %MON dynstat_wvel_sd              =   1.7819224610335E-05
(PID.TID 0000.0001) %MON dynstat_wvel_del2            =   5.7799773109816E-06
(PID.TID 0000.0001) %MON dynstat_theta_max            =   2.9748090087278E+01
(PID.TID 0000.0001) %MON dynstat_theta_min            =  -1.9977115774026E+00
(PID.TID 0000.0001) %MON dynstat_theta_mean           =   3.5863321165490E+00
(PID.TID 0000.0001) %MON dynstat_theta_sd             =   4.3371148480347E+00
(PID.TID 0000.0001) %MON dynstat_theta_del2           =   1.3966760522375E-01
(PID.TID 0000.0001) %MON dynstat_salt_max             =   3.7380860299995E+01
(PID.TID 0000.0001) %MON dynstat_salt_min             =   2.9884417233001E+01
(PID.TID 0000.0001) %MON dynstat_salt_mean            =   3.4715917964293E+01
(PID.TID 0000.0001) %MON dynstat_salt_sd              =   2.9519173475449E-01
(PID.TID 0000.0001) %MON dynstat_salt_del2            =   2.5096739827101E-02
(PID.TID 0000.0001) %MON dynstat_sst_max              =   2.9748090087278E+01
(PID.TID 0000.0001) %MON dynstat_sst_min              =  -1.9183119500063E+00
(PID.TID 0000.0001) %MON dynstat_sst_mean             =   1.8706484694679E+01
(PID.TID 0000.0001) %MON dynstat_sst_sd               =   8.9592038539737E+00
(PID.TID 0000.0001) %MON dynstat_sst_del2             =   2.6555142439928E-01
(PID.TID 0000.0001) %MON dynstat_sss_max              =   3.7380859651470E+01
(PID.TID 0000.0001) %MON dynstat_sss_min              =   2.9884417233001E+01
(PID.TID 0000.0001) %MON dynstat_sss_mean             =   3.4838011253077E+01
(PID.TID 0000.0001) %MON dynstat_sss_sd               =   9.5401352530271E-01
(PID.TID 0000.0001) %MON dynstat_sss_del2             =   7.7388783093376E-02
(PID.TID 0000.0001) %MON extforcing_qnet_max          =   3.2767257181803E+02
(PID.TID 0000.0001) %MON extforcing_qnet_min          =  -1.6954189707438E+02
(PID.TID 0000.0001) %MON extforcing_qnet_mean         =  -1.1508516483050E+01
(PID.TID 0000.0001) %MON extforcing_qnet_sd           =   6.4697646918086E+01
(PID.TID 0000.0001) %MON extforcing_qnet_del2         =   7.9986729272894E+00
(PID.TID 0000.0001) %MON extforcing_qsw_max           =   0.0000000000000E+00
(PID.TID 0000.0001) %MON extforcing_qsw_min           =   0.0000000000000E+00
(PID.TID 0000.0001) %MON extforcing_qsw_mean          =   0.0000000000000E+00
(PID.TID 0000.0001) %MON extforcing_qsw_sd            =   0.0000000000000E+00
(PID.TID 0000.0001) %MON extforcing_qsw_del2          =   0.0000000000000E+00
(PID.TID 0000.0001) %MON extforcing_empmr_max         =   0.0000000000000E+00
(PID.TID 0000.0001) %MON extforcing_empmr_min         =   0.0000000000000E+00
(PID.TID 0000.0001) %MON extforcing_empmr_mean        =   0.0000000000000E+00
(PID.TID 0000.0001) %MON extforcing_empmr_sd          =   0.0000000000000E+00
(PID.TID 0000.0001) %MON extforcing_empmr_del2        =   0.0000000000000E+00
(PID.TID 0000.0001) %MON extforcing_fu_max            =   3.2066449820995E-01
(PID.TID 0000.0001) %MON extforcing_fu_min            =  -2.7496327509483E-01
(PID.TID 0000.0001) %MON extforcing_fu_mean           =   1.8666937100678E-02
(PID.TID 0000.0001) %MON extforcing_fu_sd             =   9.4247901717010E-02
(PID.TID 0000.0001) %MON extforcing_fu_del2           =   8.0347615774993E-03
(PID.TID 0000.0001) %MON extforcing_fv_max            =   1.5726317167282E-01
(PID.TID 0000.0001) %MON extforcing_fv_min            =  -1.8333285748959E-01
(PID.TID 0000.0001) %MON extforcing_fv_mean           =  -7.3314367906246E-03
(PID.TID 0000.0001) %MON extforcing_fv_sd             =   4.2374687785746E-02
(PID.TID 0000.0001) %MON extforcing_fv_del2           =   4.6072637396422E-03
(PID.TID 0000.0001) %MON advcfl_uvel_max              =   3.1844905752300E-02
(PID.TID 0000.0001) %MON advcfl_vvel_max              =   1.5997901803168E-02
(PID.TID 0000.0001) %MON advcfl_wvel_max              =   9.1315066955312E-02
(PID.TID 0000.0001) %MON advcfl_W_hf_max              =   9.3817211887157E-02
(PID.TID 0000.0001) %MON pe_b_mean                    =   3.3060761753176E-04
(PID.TID 0000.0001) %MON ke_max                       =   2.0456920161562E-02
(PID.TID 0000.0001) %MON ke_mean                      =   2.0015537830423E-04
(PID.TID 0000.0001) %MON ke_vol                       =   1.3226782436723E+18
(PID.TID 0000.0001) %MON vort_r_min                   =  -4.7765498446954E-07
(PID.TID 0000.0001) %MON vort_r_max                   =   4.4661920756784E-07
(PID.TID 0000.0001) %MON vort_a_mean                  =  -2.5205769102085E-05
(PID.TID 0000.0001) %MON vort_a_sd                    =   7.3403449550164E-05
(PID.TID 0000.0001) %MON vort_p_mean                  =  -3.1758669190370E-05
(PID.TID 0000.0001) %MON vort_p_sd                    =   1.3126414459652E-04
(PID.TID 0000.0001) %MON surfExpan_theta_mean         =   6.4571270026899E-06
(PID.TID 0000.0001) %MON surfExpan_salt_mean          =  -1.8075879837473E-07
(PID.TID 0000.0001) // =======================================================
(PID.TID 0000.0001) // End MONITOR dynamic field statistics
(PID.TID 0000.0001) // =======================================================
time,SST,SSS,fu,fv,Q,E-P,i0,i1,a,b =   4.8816E+06 -3.9848E-01  3.4482E+01 -1.9328E-02 -1.1097E-02  2.3087E+02  0.0000E+00     2     3  3.8333E-01  6.1667E-01
time,fu0,fu1,fu =   4.8816E+06 -1.4435E-02 -2.7199E-02 -1.9328E-02  3.833333333333334E-01  6.166666666666667E-01
 cg2d: Sum(rhs),rhsMax =   3.30014487959218E-12  8.78807262374498E+00
(PID.TID 0000.0001)                    cg2d_init_res =    2.84691474961569E-01
(PID.TID 0000.0001)                       cg2d_iters =    24
(PID.TID 0000.0001)                         cg2d_res =    6.21983527321238E-14
(PID.TID 0000.0001) // =======================================================
(PID.TID 0000.0001) // Begin MONITOR dynamic field statistics
(PID.TID 0000.0001) // =======================================================
(PID.TID 0000.0001) %MON time_tsnumber                =                   114
(PID.TID 0000.0001) %MON time_secondsf                =   4.9248000000000E+06
(PID.TID 0000.0001) %MON dynstat_eta_max              =   9.7603545002702E-01
(PID.TID 0000.0001) %MON dynstat_eta_min              =  -1.5659955431693E+00
(PID.TID 0000.0001) %MON dynstat_eta_mean             =  -1.3444235480709E-15
(PID.TID 0000.0001) %MON dynstat_eta_sd               =   5.0988063562564E-01
(PID.TID 0000.0001) %MON dynstat_eta_del2             =   2.6915939998638E-02
(PID.TID 0000.0001) %MON dynstat_uvel_max             =   1.8675110665919E-01
(PID.TID 0000.0001) %MON dynstat_uvel_min             =  -1.3226782351652E-01
(PID.TID 0000.0001) %MON dynstat_uvel_mean            =   1.2487033423457E-03
(PID.TID 0000.0001) %MON dynstat_uvel_sd              =   1.5982235675058E-02
(PID.TID 0000.0001) %MON dynstat_uvel_del2            =   3.4183471885697E-03
(PID.TID 0000.0001) %MON dynstat_vvel_max             =   1.6500411614616E-01
(PID.TID 0000.0001) %MON dynstat_vvel_min             =  -1.3292439061812E-01
(PID.TID 0000.0001) %MON dynstat_vvel_mean            =   1.4001511774895E-03
(PID.TID 0000.0001) %MON dynstat_vvel_sd              =   1.3591389460010E-02
(PID.TID 0000.0001) %MON dynstat_vvel_del2            =   3.3409748876458E-03
(PID.TID 0000.0001) %MON dynstat_wvel_max             =   1.5735711623563E-04
(PID.TID 0000.0001) %MON dynstat_wvel_min             =  -2.0622641443896E-04
(PID.TID 0000.0001) %MON dynstat_wvel_mean            =   6.8622685882180E-22
(PID.TID 0000.0001) %MON dynstat_wvel_sd              =   1.7784697898024E-05
(PID.TID 0000.0001) %MON dynstat_wvel_del2            =   5.7639798522906E-06
(PID.TID 0000.0001) %MON dynstat_theta_max            =   2.9751681677926E+01
(PID.TID 0000.0001) %MON dynstat_theta_min            =  -1.9966263710999E+00
(PID.TID 0000.0001) %MON dynstat_theta_mean           =   3.5862922102241E+00
(PID.TID 0000.0001) %MON dynstat_theta_sd             =   4.3371781601460E+00
(PID.TID 0000.0001) %MON dynstat_theta_del2           =   1.3966970708251E-01
(PID.TID 0000.0001) %MON dynstat_salt_max             =   3.7380702607310E+01
(PID.TID 0000.0001) %MON dynstat_salt_min             =   2.9884106609212E+01
(PID.TID 0000.0001) %MON dynstat_salt_mean            =   3.4715920821980E+01
(PID.TID 0000.0001) %MON dynstat_salt_sd              =   2.9516111326389E-01
(PID.TID 0000.0001) %MON dynstat_salt_del2            =   2.5088557203900E-02
(PID.TID 0000.0001) %MON dynstat_sst_max              =   2.9751681677926E+01
(PID.TID 0000.0001) %MON dynstat_sst_min              =  -1.9181654517237E+00
(PID.TID 0000.0001) %MON dynstat_sst_mean             =   1.8709665907857E+01
(PID.TID 0000.0001) %MON dynstat_sst_sd               =   8.9624104636384E+00
(PID.TID 0000.0001) %MON dynstat_sst_del2             =   2.6551883238314E-01
(PID.TID 0000.0001) %MON dynstat_sss_max              =   3.7380701984457E+01
(PID.TID 0000.0001) %MON dynstat_sss_min              =   2.9884106609212E+01
(PID.TID 0000.0001) %MON dynstat_sss_mean             =   3.4838140841759E+01
(PID.TID 0000.0001) %MON dynstat_sss_sd               =   9.5384151080839E-01
(PID.TID 0000.0001) %MON dynstat_sss_del2             =   7.7297200997668E-02
(PID.TID 0000.0001) %MON extforcing_qnet_max          =   3.2627349599202E+02
(PID.TID 0000.0001) %MON extforcing_qnet_min          =  -1.6939225743612E+02
(PID.TID 0000.0001) %MON extforcing_qnet_mean         =  -1.1396846733237E+01
(PID.TID 0000.0001) %MON extforcing_qnet_sd           =   6.4070924996161E+01
(PID.TID 0000.0001) %MON extforcing_qnet_del2         =   7.9806335607904E+00
(PID.TID 0000.0001) %MON extforcing_qsw_max           =   0.0000000000000E+00
(PID.TID 0000.0001) %MON extforcing_qsw_min           =   0.0000000000000E+00
(PID.TID 0000.0001) %MON extforcing_qsw_mean          =   0.0000000000000E+00
(PID.TID 0000.0001) %MON extforcing_qsw_sd            =   0.0000000000000E+00
(PID.TID 0000.0001) %MON extforcing_qsw_del2          =   0.0000000000000E+00
(PID.TID 0000.0001) %MON extforcing_empmr_max         =   0.0000000000000E+00
(PID.TID 0000.0001) %MON extforcing_empmr_min         =   0.0000000000000E+00
(PID.TID 0000.0001) %MON extforcing_empmr_mean        =   0.0000000000000E+00
(PID.TID 0000.0001) %MON extforcing_empmr_sd          =   0.0000000000000E+00
(PID.TID 0000.0001) %MON extforcing_empmr_del2        =   0.0000000000000E+00
(PID.TID 0000.0001) %MON extforcing_fu_max            =   3.2163520604372E-01
(PID.TID 0000.0001) %MON extforcing_fu_min            =  -2.7765558982889E-01
(PID.TID 0000.0001) %MON extforcing_fu_mean           =   1.8714036895407E-02
(PID.TID 0000.0001) %MON extforcing_fu_sd             =   9.4365067366221E-02
(PID.TID 0000.0001) %MON extforcing_fu_del2           =   8.0500528426094E-03
(PID.TID 0000.0001) %MON extforcing_fv_max            =   1.5672450065613E-01
(PID.TID 0000.0001) %MON extforcing_fv_min            =  -1.8258983939886E-01
(PID.TID 0000.0001) %MON extforcing_fv_mean           =  -7.3366509656093E-03
(PID.TID 0000.0001) %MON extforcing_fv_sd             =   4.2300351733126E-02
(PID.TID 0000.0001) %MON extforcing_fv_del2           =   4.5990463369105E-03
(PID.TID 0000.0001) %MON advcfl_uvel_max              =   3.0863946275201E-02
(PID.TID 0000.0001) %MON advcfl_vvel_max              =   1.6028826709668E-02
(PID.TID 0000.0001) %MON advcfl_wvel_max              =   8.5428709882564E-02
(PID.TID 0000.0001) %MON advcfl_W_hf_max              =   8.7856592824952E-02
(PID.TID 0000.0001) %MON pe_b_mean                    =   3.3267352289473E-04
(PID.TID 0000.0001) %MON ke_max                       =   2.0054741891502E-02
(PID.TID 0000.0001) %MON ke_mean                      =   2.0056661378036E-04
(PID.TID 0000.0001) %MON ke_vol                       =   1.3226782436723E+18
(PID.TID 0000.0001) %MON vort_r_min                   =  -4.8182441996240E-07
(PID.TID 0000.0001) %MON vort_r_max                   =   4.5313794016666E-07
(PID.TID 0000.0001) %MON vort_a_mean                  =  -2.5205769105364E-05
(PID.TID 0000.0001) %MON vort_a_sd                    =   7.3403451355804E-05
(PID.TID 0000.0001) %MON vort_p_mean                  =  -3.1758669194501E-05
(PID.TID 0000.0001) %MON vort_p_sd                    =   1.3126413341147E-04
(PID.TID 0000.0001) %MON surfExpan_theta_mean         =   5.8940648991700E-06
(PID.TID 0000.0001) %MON surfExpan_salt_mean          =  -2.4118266623822E-07
(PID.TID 0000.0001) // =======================================================
(PID.TID 0000.0001) // End MONITOR dynamic field statistics
(PID.TID 0000.0001) // =======================================================
time,SST,SSS,fu,fv,Q,E-P,i0,i1,a,b =   4.9248E+06 -3.9268E-01  3.4484E+01 -1.9540E-02 -1.0813E-02  2.3045E+02  0.0000E+00     2     3  4.0000E-01  6.0000E-01
time,fu0,fu1,fu =   4.9248E+06 -1.4435E-02 -2.7199E-02 -1.9540E-02  4.000000000000000E-01  6.000000000000000E-01
 cg2d: Sum(rhs),rhsMax =   2.69822358900385E-12  8.72810183688228E+00
(PID.TID 0000.0001)                    cg2d_init_res =    2.78853611699370E-01
(PID.TID 0000.0001)                       cg2d_iters =    24
(PID.TID 0000.0001)                         cg2d_res =    6.07472004755525E-14
(PID.TID 0000.0001) // =======================================================
(PID.TID 0000.0001) // Begin MONITOR dynamic field statistics
(PID.TID 0000.0001) // =======================================================
(PID.TID 0000.0001) %MON time_tsnumber                =                   115
(PID.TID 0000.0001) %MON time_secondsf                =   4.9680000000000E+06
(PID.TID 0000.0001) %MON dynstat_eta_max              =   9.6946721246787E-01
(PID.TID 0000.0001) %MON dynstat_eta_min              =  -1.5646715763308E+00
(PID.TID 0000.0001) %MON dynstat_eta_mean             =  -1.3501332993210E-15
(PID.TID 0000.0001) %MON dynstat_eta_sd               =   5.1143328247814E-01
(PID.TID 0000.0001) %MON dynstat_eta_del2             =   2.6937970462221E-02
(PID.TID 0000.0001) %MON dynstat_uvel_max             =   1.8213793330198E-01
(PID.TID 0000.0001) %MON dynstat_uvel_min             =  -1.3243576361645E-01
(PID.TID 0000.0001) %MON dynstat_uvel_mean            =   1.2650009351020E-03
(PID.TID 0000.0001) %MON dynstat_uvel_sd              =   1.6021658747320E-02
(PID.TID 0000.0001) %MON dynstat_uvel_del2            =   3.4184469399136E-03
(PID.TID 0000.0001) %MON dynstat_vvel_max             =   1.6514694152875E-01
(PID.TID 0000.0001) %MON dynstat_vvel_min             =  -1.3189410447644E-01
(PID.TID 0000.0001) %MON dynstat_vvel_mean            =   1.4355318019482E-03
(PID.TID 0000.0001) %MON dynstat_vvel_sd              =   1.3549789208429E-02
(PID.TID 0000.0001) %MON dynstat_vvel_del2            =   3.3396541138578E-03
(PID.TID 0000.0001) %MON dynstat_wvel_max             =   1.5769045302041E-04
(PID.TID 0000.0001) %MON dynstat_wvel_min             =  -2.0186712677180E-04
(PID.TID 0000.0001) %MON dynstat_wvel_mean            =  -2.4958239212363E-23
(PID.TID 0000.0001) %MON dynstat_wvel_sd              =   1.7749909028266E-05
(PID.TID 0000.0001) %MON dynstat_wvel_del2            =   5.7510730746485E-06
(PID.TID 0000.0001) %MON dynstat_theta_max            =   2.9754937486329E+01
(PID.TID 0000.0001) %MON dynstat_theta_min            =  -1.9954791578499E+00
(PID.TID 0000.0001) %MON dynstat_theta_mean           =   3.5862579835161E+00
(PID.TID 0000.0001) %MON dynstat_theta_sd             =   4.3372589343452E+00
(PID.TID 0000.0001) %MON dynstat_theta_del2           =   1.3968010163287E-01
(PID.TID 0000.0001) %MON dynstat_salt_max             =   3.7380524347535E+01
(PID.TID 0000.0001) %MON dynstat_salt_min             =   2.9883873806876E+01
(PID.TID 0000.0001) %MON dynstat_salt_mean            =   3.4715924339760E+01
(PID.TID 0000.0001) %MON dynstat_salt_sd              =   2.9513085061121E-01
(PID.TID 0000.0001) %MON dynstat_salt_del2            =   2.5082772200888E-02
(PID.TID 0000.0001) %MON dynstat_sst_max              =   2.9754937486329E+01
(PID.TID 0000.0001) %MON dynstat_sst_min              =  -1.9180538992961E+00
(PID.TID 0000.0001) %MON dynstat_sst_mean             =   1.8712510028806E+01
(PID.TID 0000.0001) %MON dynstat_sst_sd               =   8.9659617227279E+00
(PID.TID 0000.0001) %MON dynstat_sst_del2             =   2.6560991733143E-01
(PID.TID 0000.0001) %MON dynstat_sss_max              =   3.7380523751527E+01
(PID.TID 0000.0001) %MON dynstat_sss_min              =   2.9883873806876E+01
(PID.TID 0000.0001) %MON dynstat_sss_mean             =   3.4838219815108E+01
(PID.TID 0000.0001) %MON dynstat_sss_sd               =   9.5370739663428E-01
(PID.TID 0000.0001) %MON dynstat_sss_del2             =   7.7274601279016E-02
(PID.TID 0000.0001) %MON extforcing_qnet_max          =   3.2487442016602E+02
(PID.TID 0000.0001) %MON extforcing_qnet_min          =  -1.6924261779785E+02
(PID.TID 0000.0001) %MON extforcing_qnet_mean         =  -1.1285176983424E+01
(PID.TID 0000.0001) %MON extforcing_qnet_sd           =   6.3449695075861E+01
(PID.TID 0000.0001) %MON extforcing_qnet_del2         =   7.9634644050530E+00
(PID.TID 0000.0001) %MON extforcing_qsw_max           =   0.0000000000000E+00
(PID.TID 0000.0001) %MON extforcing_qsw_min           =   0.0000000000000E+00
(PID.TID 0000.0001) %MON extforcing_qsw_mean          =   0.0000000000000E+00
(PID.TID 0000.0001) %MON extforcing_qsw_sd            =   0.0000000000000E+00
(PID.TID 0000.0001) %MON extforcing_qsw_del2          =   0.0000000000000E+00
(PID.TID 0000.0001) %MON extforcing_empmr_max         =   0.0000000000000E+00
(PID.TID 0000.0001) %MON extforcing_empmr_min         =   0.0000000000000E+00
(PID.TID 0000.0001) %MON extforcing_empmr_mean        =   0.0000000000000E+00
(PID.TID 0000.0001) %MON extforcing_empmr_sd          =   0.0000000000000E+00
(PID.TID 0000.0001) %MON extforcing_empmr_del2        =   0.0000000000000E+00
(PID.TID 0000.0001) %MON extforcing_fu_max            =   3.2260591387749E-01
(PID.TID 0000.0001) %MON extforcing_fu_min            =  -2.8034790456295E-01
(PID.TID 0000.0001) %MON extforcing_fu_mean           =   1.8761136690137E-02
(PID.TID 0000.0001) %MON extforcing_fu_sd             =   9.4487425263087E-02
(PID.TID 0000.0001) %MON extforcing_fu_del2           =   8.0666204455458E-03
(PID.TID 0000.0001) %MON extforcing_fv_max            =   1.5618582963943E-01
(PID.TID 0000.0001) %MON extforcing_fv_min            =  -1.8184682130814E-01
(PID.TID 0000.0001) %MON extforcing_fv_mean           =  -7.3418651405940E-03
(PID.TID 0000.0001) %MON extforcing_fv_sd             =   4.2230357499442E-02
(PID.TID 0000.0001) %MON extforcing_fv_del2           =   4.5918399264266E-03
(PID.TID 0000.0001) %MON advcfl_uvel_max              =   2.9707478189510E-02
(PID.TID 0000.0001) %MON advcfl_vvel_max              =   1.6042701050264E-02
(PID.TID 0000.0001) %MON advcfl_wvel_max              =   7.7925564268856E-02
(PID.TID 0000.0001) %MON advcfl_W_hf_max              =   8.0297503193168E-02
(PID.TID 0000.0001) %MON pe_b_mean                    =   3.3470266815418E-04
(PID.TID 0000.0001) %MON ke_max                       =   1.9520622977616E-02
(PID.TID 0000.0001) %MON ke_mean                      =   2.0069657984496E-04
(PID.TID 0000.0001) %MON ke_vol                       =   1.3226782436723E+18
(PID.TID 0000.0001) %MON vort_r_min                   =  -4.8645557929037E-07
(PID.TID 0000.0001) %MON vort_r_max                   =   4.5786012558925E-07
(PID.TID 0000.0001) %MON vort_a_mean                  =  -2.5205769107312E-05
(PID.TID 0000.0001) %MON vort_a_sd                    =   7.3403452976861E-05
(PID.TID 0000.0001) %MON vort_p_mean                  =  -3.1758669196956E-05
(PID.TID 0000.0001) %MON vort_p_sd                    =   1.3126411178124E-04
(PID.TID 0000.0001) %MON surfExpan_theta_mean         =   5.3558562107433E-06
(PID.TID 0000.0001) %MON surfExpan_salt_mean          =  -3.0092239957453E-07
(PID.TID 0000.0001) // =======================================================
(PID.TID 0000.0001) // End MONITOR dynamic field statistics
(PID.TID 0000.0001) // =======================================================
time,SST,SSS,fu,fv,Q,E-P,i0,i1,a,b =   4.9680E+06 -3.8688E-01  3.4487E+01 -1.9753E-02 -1.0528E-02  2.3003E+02  0.0000E+00     2     3  4.1667E-01  5.8333E-01
time,fu0,fu1,fu =   4.9680E+06 -1.4435E-02 -2.7199E-02 -1.9753E-02  4.166666666666667E-01  5.833333333333333E-01
 cg2d: Sum(rhs),rhsMax =   2.25967161648910E-12  8.66161353974614E+00
(PID.TID 0000.0001)                    cg2d_init_res =    2.72530508773681E-01
(PID.TID 0000.0001)                       cg2d_iters =    24
(PID.TID 0000.0001)                         cg2d_res =    5.89488896657746E-14
(PID.TID 0000.0001) // =======================================================
(PID.TID 0000.0001) // Begin MONITOR dynamic field statistics
(PID.TID 0000.0001) // =======================================================
(PID.TID 0000.0001) %MON time_tsnumber                =                   116
(PID.TID 0000.0001) %MON time_secondsf                =   5.0112000000000E+06
(PID.TID 0000.0001) %MON dynstat_eta_max              =   9.6214955075519E-01
(PID.TID 0000.0001) %MON dynstat_eta_min              =  -1.5625011590754E+00
(PID.TID 0000.0001) %MON dynstat_eta_mean             =  -1.2824440921217E-15
(PID.TID 0000.0001) %MON dynstat_eta_sd               =   5.1294627349435E-01
(PID.TID 0000.0001) %MON dynstat_eta_del2             =   2.6947218636693E-02
(PID.TID 0000.0001) %MON dynstat_uvel_max             =   1.7989537886618E-01
(PID.TID 0000.0001) %MON dynstat_uvel_min             =  -1.3256412774344E-01
(PID.TID 0000.0001) %MON dynstat_uvel_mean            =   1.2779382663045E-03
(PID.TID 0000.0001) %MON dynstat_uvel_sd              =   1.6046360613587E-02
(PID.TID 0000.0001) %MON dynstat_uvel_del2            =   3.4184249782669E-03
(PID.TID 0000.0001) %MON dynstat_vvel_max             =   1.6511267526686E-01
(PID.TID 0000.0001) %MON dynstat_vvel_min             =  -1.3063722707897E-01
(PID.TID 0000.0001) %MON dynstat_vvel_mean            =   1.4654905184839E-03
(PID.TID 0000.0001) %MON dynstat_vvel_sd              =   1.3504340610538E-02
(PID.TID 0000.0001) %MON dynstat_vvel_del2            =   3.3400002575149E-03
(PID.TID 0000.0001) %MON dynstat_wvel_max             =   1.5777469800483E-04
(PID.TID 0000.0001) %MON dynstat_wvel_min             =  -1.9696743800667E-04
(PID.TID 0000.0001) %MON dynstat_wvel_mean            =   1.2265519511831E-23
(PID.TID 0000.0001) %MON dynstat_wvel_sd              =   1.7714922868020E-05
(PID.TID 0000.0001) %MON dynstat_wvel_del2            =   5.7419861213504E-06
(PID.TID 0000.0001) %MON dynstat_theta_max            =   2.9757753575389E+01
(PID.TID 0000.0001) %MON dynstat_theta_min            =  -1.9942596960875E+00
(PID.TID 0000.0001) %MON dynstat_theta_mean           =   3.5862292402092E+00
(PID.TID 0000.0001) %MON dynstat_theta_sd             =   4.3373537199795E+00
(PID.TID 0000.0001) %MON dynstat_theta_del2           =   1.3968872673140E-01
(PID.TID 0000.0001) %MON dynstat_salt_max             =   3.7380320811319E+01
(PID.TID 0000.0001) %MON dynstat_salt_min             =   2.9883724845035E+01
(PID.TID 0000.0001) %MON dynstat_salt_mean            =   3.4715928523257E+01
(PID.TID 0000.0001) %MON dynstat_salt_sd              =   2.9510028181204E-01
(PID.TID 0000.0001) %MON dynstat_salt_del2            =   2.5079787834283E-02
(PID.TID 0000.0001) %MON dynstat_sst_max              =   2.9757753575389E+01
(PID.TID 0000.0001) %MON dynstat_sst_min              =  -1.9183433808193E+00
(PID.TID 0000.0001) %MON dynstat_sst_mean             =   1.8715255526839E+01
(PID.TID 0000.0001) %MON dynstat_sst_sd               =   8.9695744861466E+00
(PID.TID 0000.0001) %MON dynstat_sst_del2             =   2.6563576932279E-01
(PID.TID 0000.0001) %MON dynstat_sss_max              =   3.7380320242691E+01
(PID.TID 0000.0001) %MON dynstat_sss_min              =   2.9883724845035E+01
(PID.TID 0000.0001) %MON dynstat_sss_mean             =   3.4838301043841E+01
(PID.TID 0000.0001) %MON dynstat_sss_sd               =   9.5357481070526E-01
(PID.TID 0000.0001) %MON dynstat_sss_del2             =   7.7276276582639E-02
(PID.TID 0000.0001) %MON extforcing_qnet_max          =   3.2347534434001E+02
(PID.TID 0000.0001) %MON extforcing_qnet_min          =  -1.6909297815959E+02
(PID.TID 0000.0001) %MON extforcing_qnet_mean         =  -1.1173507233611E+01
(PID.TID 0000.0001) %MON extforcing_qnet_sd           =   6.2834120052766E+01
(PID.TID 0000.0001) %MON extforcing_qnet_del2         =   7.9465360533199E+00
(PID.TID 0000.0001) %MON extforcing_qsw_max           =   0.0000000000000E+00
(PID.TID 0000.0001) %MON extforcing_qsw_min           =   0.0000000000000E+00
(PID.TID 0000.0001) %MON extforcing_qsw_mean          =   0.0000000000000E+00
(PID.TID 0000.0001) %MON extforcing_qsw_sd            =   0.0000000000000E+00
(PID.TID 0000.0001) %MON extforcing_qsw_del2          =   0.0000000000000E+00
(PID.TID 0000.0001) %MON extforcing_empmr_max         =   0.0000000000000E+00
(PID.TID 0000.0001) %MON extforcing_empmr_min         =   0.0000000000000E+00
(PID.TID 0000.0001) %MON extforcing_empmr_mean        =   0.0000000000000E+00
(PID.TID 0000.0001) %MON extforcing_empmr_sd          =   0.0000000000000E+00
(PID.TID 0000.0001) %MON extforcing_empmr_del2        =   0.0000000000000E+00
(PID.TID 0000.0001) %MON extforcing_fu_max            =   3.2357662171125E-01
(PID.TID 0000.0001) %MON extforcing_fu_min            =  -2.8304021929701E-01
(PID.TID 0000.0001) %MON extforcing_fu_mean           =   1.8808236484866E-02
(PID.TID 0000.0001) %MON extforcing_fu_sd             =   9.4614955263464E-02
(PID.TID 0000.0001) %MON extforcing_fu_del2           =   8.0842645680762E-03
(PID.TID 0000.0001) %MON extforcing_fv_max            =   1.5564715862274E-01
(PID.TID 0000.0001) %MON extforcing_fv_min            =  -1.8110380321741E-01
(PID.TID 0000.0001) %MON extforcing_fv_mean           =  -7.3470793155788E-03
(PID.TID 0000.0001) %MON extforcing_fv_sd             =   4.2164726707203E-02
(PID.TID 0000.0001) %MON extforcing_fv_del2           =   4.5857914216180E-03
(PID.TID 0000.0001) %MON advcfl_uvel_max              =   2.8400240235951E-02
(PID.TID 0000.0001) %MON advcfl_vvel_max              =   1.6039372357704E-02
(PID.TID 0000.0001) %MON advcfl_wvel_max              =   6.9012747194112E-02
(PID.TID 0000.0001) %MON advcfl_W_hf_max              =   7.1345184188136E-02
(PID.TID 0000.0001) %MON pe_b_mean                    =   3.3668592267040E-04
(PID.TID 0000.0001) %MON ke_max                       =   1.9518222437117E-02
(PID.TID 0000.0001) %MON ke_mean                      =   2.0055841666100E-04
(PID.TID 0000.0001) %MON ke_vol                       =   1.3226782436723E+18
(PID.TID 0000.0001) %MON vort_r_min                   =  -4.9146713932045E-07
(PID.TID 0000.0001) %MON vort_r_max                   =   4.6069507517034E-07
(PID.TID 0000.0001) %MON vort_a_mean                  =  -2.5205769107855E-05
(PID.TID 0000.0001) %MON vort_a_sd                    =   7.3403454251250E-05
(PID.TID 0000.0001) %MON vort_p_mean                  =  -3.1758669197640E-05
(PID.TID 0000.0001) %MON vort_p_sd                    =   1.3126407956319E-04
(PID.TID 0000.0001) %MON surfExpan_theta_mean         =   4.8526085745921E-06
(PID.TID 0000.0001) %MON surfExpan_salt_mean          =  -3.5783289996726E-07
(PID.TID 0000.0001) // =======================================================
(PID.TID 0000.0001) // End MONITOR dynamic field statistics
(PID.TID 0000.0001) // =======================================================
time,SST,SSS,fu,fv,Q,E-P,i0,i1,a,b =   5.0112E+06 -3.8108E-01  3.4490E+01 -1.9966E-02 -1.0244E-02  2.2961E+02  0.0000E+00     2     3  4.3333E-01  5.6667E-01
time,fu0,fu1,fu =   5.0112E+06 -1.4435E-02 -2.7199E-02 -1.9966E-02  4.333333333333333E-01  5.666666666666667E-01
 cg2d: Sum(rhs),rhsMax =   3.12819214975946E-12  8.59122145623475E+00
(PID.TID 0000.0001)                    cg2d_init_res =    2.66182448345421E-01
(PID.TID 0000.0001)                       cg2d_iters =    24
(PID.TID 0000.0001)                         cg2d_res =    5.70828521925385E-14
(PID.TID 0000.0001) // =======================================================
(PID.TID 0000.0001) // Begin MONITOR dynamic field statistics
(PID.TID 0000.0001) // =======================================================
(PID.TID 0000.0001) %MON time_tsnumber                =                   117
(PID.TID 0000.0001) %MON time_secondsf                =   5.0544000000000E+06
(PID.TID 0000.0001) %MON dynstat_eta_max              =   9.5422085353266E-01
(PID.TID 0000.0001) %MON dynstat_eta_min              =  -1.5593301300878E+00
(PID.TID 0000.0001) %MON dynstat_eta_mean             =  -1.0587166518740E-15
(PID.TID 0000.0001) %MON dynstat_eta_sd               =   5.1441366769525E-01
(PID.TID 0000.0001) %MON dynstat_eta_del2             =   2.6963064322558E-02
(PID.TID 0000.0001) %MON dynstat_uvel_max             =   1.8326394886021E-01
(PID.TID 0000.0001) %MON dynstat_uvel_min             =  -1.3265554327271E-01
(PID.TID 0000.0001) %MON dynstat_uvel_mean            =   1.2869604402560E-03
(PID.TID 0000.0001) %MON dynstat_uvel_sd              =   1.6057624074292E-02
(PID.TID 0000.0001) %MON dynstat_uvel_del2            =   3.4177843668849E-03
(PID.TID 0000.0001) %MON dynstat_vvel_max             =   1.6490057323735E-01
(PID.TID 0000.0001) %MON dynstat_vvel_min             =  -1.2916918539304E-01
(PID.TID 0000.0001) %MON dynstat_vvel_mean            =   1.4904312862232E-03
(PID.TID 0000.0001) %MON dynstat_vvel_sd              =   1.3455033290462E-02
(PID.TID 0000.0001) %MON dynstat_vvel_del2            =   3.3401979928738E-03
(PID.TID 0000.0001) %MON dynstat_wvel_max             =   1.5758898816080E-04
(PID.TID 0000.0001) %MON dynstat_wvel_min             =  -1.9161857963541E-04
(PID.TID 0000.0001) %MON dynstat_wvel_mean            =   2.4117099243503E-22
(PID.TID 0000.0001) %MON dynstat_wvel_sd              =   1.7680125167860E-05
(PID.TID 0000.0001) %MON dynstat_wvel_del2            =   5.7358167347402E-06
(PID.TID 0000.0001) %MON dynstat_theta_max            =   2.9760033664963E+01
(PID.TID 0000.0001) %MON dynstat_theta_min            =  -1.9929586662682E+00
(PID.TID 0000.0001) %MON dynstat_theta_mean           =   3.5862055129840E+00
(PID.TID 0000.0001) %MON dynstat_theta_sd             =   4.3374554072131E+00
(PID.TID 0000.0001) %MON dynstat_theta_del2           =   1.3972303694651E-01
(PID.TID 0000.0001) %MON dynstat_salt_max             =   3.7380644496961E+01
(PID.TID 0000.0001) %MON dynstat_salt_min             =   2.9883662313681E+01
(PID.TID 0000.0001) %MON dynstat_salt_mean            =   3.4715933324847E+01
(PID.TID 0000.0001) %MON dynstat_salt_sd              =   2.9506628701660E-01
(PID.TID 0000.0001) %MON dynstat_salt_del2            =   2.5087815486547E-02
(PID.TID 0000.0001) %MON dynstat_sst_max              =   2.9760033664963E+01
(PID.TID 0000.0001) %MON dynstat_sst_min              =  -1.9185688621632E+00
(PID.TID 0000.0001) %MON dynstat_sst_mean             =   1.8718342130103E+01
(PID.TID 0000.0001) %MON dynstat_sst_sd               =   8.9729258620548E+00
(PID.TID 0000.0001) %MON dynstat_sst_del2             =   2.6623983351808E-01
(PID.TID 0000.0001) %MON dynstat_sss_max              =   3.7379308476727E+01
(PID.TID 0000.0001) %MON dynstat_sss_min              =   2.9883662313681E+01
(PID.TID 0000.0001) %MON dynstat_sss_mean             =   3.4838507018593E+01
(PID.TID 0000.0001) %MON dynstat_sss_sd               =   9.5343575688028E-01
(PID.TID 0000.0001) %MON dynstat_sss_del2             =   7.7377363317506E-02
(PID.TID 0000.0001) %MON extforcing_qnet_max          =   3.2207626851400E+02
(PID.TID 0000.0001) %MON extforcing_qnet_min          =  -1.6894333852132E+02
(PID.TID 0000.0001) %MON extforcing_qnet_mean         =  -1.1061837483797E+01
(PID.TID 0000.0001) %MON extforcing_qnet_sd           =   6.2224367755894E+01
(PID.TID 0000.0001) %MON extforcing_qnet_del2         =   7.9299038446141E+00
(PID.TID 0000.0001) %MON extforcing_qsw_max           =   0.0000000000000E+00
(PID.TID 0000.0001) %MON extforcing_qsw_min           =   0.0000000000000E+00
(PID.TID 0000.0001) %MON extforcing_qsw_mean          =   0.0000000000000E+00
(PID.TID 0000.0001) %MON extforcing_qsw_sd            =   0.0000000000000E+00
(PID.TID 0000.0001) %MON extforcing_qsw_del2          =   0.0000000000000E+00
(PID.TID 0000.0001) %MON extforcing_empmr_max         =   0.0000000000000E+00
(PID.TID 0000.0001) %MON extforcing_empmr_min         =   0.0000000000000E+00
(PID.TID 0000.0001) %MON extforcing_empmr_mean        =   0.0000000000000E+00
(PID.TID 0000.0001) %MON extforcing_empmr_sd          =   0.0000000000000E+00
(PID.TID 0000.0001) %MON extforcing_empmr_del2        =   0.0000000000000E+00
(PID.TID 0000.0001) %MON extforcing_fu_max            =   3.2454732954502E-01
(PID.TID 0000.0001) %MON extforcing_fu_min            =  -2.8573253403107E-01
(PID.TID 0000.0001) %MON extforcing_fu_mean           =   1.8855336279595E-02
(PID.TID 0000.0001) %MON extforcing_fu_sd             =   9.4747636482451E-02
(PID.TID 0000.0001) %MON extforcing_fu_del2           =   8.1023752079277E-03
(PID.TID 0000.0001) %MON extforcing_fv_max            =   1.5510848760605E-01
(PID.TID 0000.0001) %MON extforcing_fv_min            =  -1.8036078512669E-01
(PID.TID 0000.0001) %MON extforcing_fv_mean           =  -7.3522934905635E-03
(PID.TID 0000.0001) %MON extforcing_fv_sd             =   4.2103479761575E-02
(PID.TID 0000.0001) %MON extforcing_fv_del2           =   4.5810629615788E-03
(PID.TID 0000.0001) %MON advcfl_uvel_max              =   2.6969825056332E-02
(PID.TID 0000.0001) %MON advcfl_vvel_max              =   1.6018768346391E-02
(PID.TID 0000.0001) %MON advcfl_wvel_max              =   5.8925821505635E-02
(PID.TID 0000.0001) %MON advcfl_W_hf_max              =   6.1232726205933E-02
(PID.TID 0000.0001) %MON pe_b_mean                    =   3.3861500439322E-04
(PID.TID 0000.0001) %MON ke_max                       =   1.9336308273704E-02
(PID.TID 0000.0001) %MON ke_mean                      =   2.0016953009511E-04
(PID.TID 0000.0001) %MON ke_vol                       =   1.3226782436723E+18
(PID.TID 0000.0001) %MON vort_r_min                   =  -4.9676594229474E-07
(PID.TID 0000.0001) %MON vort_r_max                   =   4.6161520334642E-07
(PID.TID 0000.0001) %MON vort_a_mean                  =  -2.5205769106973E-05
(PID.TID 0000.0001) %MON vort_a_sd                    =   7.3403455033260E-05
(PID.TID 0000.0001) %MON vort_p_mean                  =  -3.1758669196529E-05
(PID.TID 0000.0001) %MON vort_p_sd                    =   1.3126403697486E-04
(PID.TID 0000.0001) %MON surfExpan_theta_mean         =   4.3879459204159E-06
(PID.TID 0000.0001) %MON surfExpan_salt_mean          =  -4.1126367748534E-07
(PID.TID 0000.0001) // =======================================================
(PID.TID 0000.0001) // End MONITOR dynamic field statistics
(PID.TID 0000.0001) // =======================================================
time,SST,SSS,fu,fv,Q,E-P,i0,i1,a,b =   5.0544E+06 -3.7528E-01  3.4492E+01 -2.0179E-02 -9.9597E-03  2.2919E+02  0.0000E+00     2     3  4.5000E-01  5.5000E-01
time,fu0,fu1,fu =   5.0544E+06 -1.4435E-02 -2.7199E-02 -2.0179E-02  4.500000000000000E-01  5.500000000000000E-01
 cg2d: Sum(rhs),rhsMax =   2.83165157988208E-12  8.77527673660993E+00
(PID.TID 0000.0001)                    cg2d_init_res =    2.52746888850007E-01
(PID.TID 0000.0001)                       cg2d_iters =    24
(PID.TID 0000.0001)                         cg2d_res =    5.40773985560601E-14
(PID.TID 0000.0001) // =======================================================
(PID.TID 0000.0001) // Begin MONITOR dynamic field statistics
(PID.TID 0000.0001) // =======================================================
(PID.TID 0000.0001) %MON time_tsnumber                =                   118
(PID.TID 0000.0001) %MON time_secondsf                =   5.0976000000000E+06
(PID.TID 0000.0001) %MON dynstat_eta_max              =   9.8338803785848E-01
(PID.TID 0000.0001) %MON dynstat_eta_min              =  -1.5550172308096E+00
(PID.TID 0000.0001) %MON dynstat_eta_mean             =  -1.5719504138717E-15
(PID.TID 0000.0001) %MON dynstat_eta_sd               =   5.1583094587234E-01
(PID.TID 0000.0001) %MON dynstat_eta_del2             =   2.6979080973891E-02
(PID.TID 0000.0001) %MON dynstat_uvel_max             =   1.8593591264852E-01
(PID.TID 0000.0001) %MON dynstat_uvel_min             =  -1.3271259091469E-01
(PID.TID 0000.0001) %MON dynstat_uvel_mean            =   1.2916160930455E-03
(PID.TID 0000.0001) %MON dynstat_uvel_sd              =   1.6056599369063E-02
(PID.TID 0000.0001) %MON dynstat_uvel_del2            =   3.4161466523542E-03
(PID.TID 0000.0001) %MON dynstat_vvel_max             =   1.6451066180430E-01
(PID.TID 0000.0001) %MON dynstat_vvel_min             =  -1.2750588183757E-01
(PID.TID 0000.0001) %MON dynstat_vvel_mean            =   1.5107518019388E-03
(PID.TID 0000.0001) %MON dynstat_vvel_sd              =   1.3402204383895E-02
(PID.TID 0000.0001) %MON dynstat_vvel_del2            =   3.3392314451846E-03
(PID.TID 0000.0001) %MON dynstat_wvel_max             =   1.5711685630951E-04
(PID.TID 0000.0001) %MON dynstat_wvel_min             =  -1.8591832653176E-04
(PID.TID 0000.0001) %MON dynstat_wvel_mean            =  -3.5266092356106E-22
(PID.TID 0000.0001) %MON dynstat_wvel_sd              =   1.7646337821599E-05
(PID.TID 0000.0001) %MON dynstat_wvel_del2            =   5.7397558949311E-06
(PID.TID 0000.0001) %MON dynstat_theta_max            =   2.9761692406470E+01
(PID.TID 0000.0001) %MON dynstat_theta_min            =  -1.9915677838784E+00
(PID.TID 0000.0001) %MON dynstat_theta_mean           =   3.5861862762998E+00
(PID.TID 0000.0001) %MON dynstat_theta_sd             =   4.3375701262418E+00
(PID.TID 0000.0001) %MON dynstat_theta_del2           =   1.3973941859738E-01
(PID.TID 0000.0001) %MON dynstat_salt_max             =   3.7380905406827E+01
(PID.TID 0000.0001) %MON dynstat_salt_min             =   2.9883685329056E+01
(PID.TID 0000.0001) %MON dynstat_salt_mean            =   3.4715938693732E+01
(PID.TID 0000.0001) %MON dynstat_salt_sd              =   2.9503656521736E-01
(PID.TID 0000.0001) %MON dynstat_salt_del2            =   2.5084993804724E-02
(PID.TID 0000.0001) %MON dynstat_sst_max              =   2.9761692406470E+01
(PID.TID 0000.0001) %MON dynstat_sst_min              =  -1.9187212721730E+00
(PID.TID 0000.0001) %MON dynstat_sst_mean             =   1.8720760386491E+01
(PID.TID 0000.0001) %MON dynstat_sst_sd               =   8.9768979485627E+00
(PID.TID 0000.0001) %MON dynstat_sst_del2             =   2.6633000125530E-01
(PID.TID 0000.0001) %MON dynstat_sss_max              =   3.7378306573313E+01
(PID.TID 0000.0001) %MON dynstat_sss_min              =   2.9883685329056E+01
(PID.TID 0000.0001) %MON dynstat_sss_mean             =   3.4838595222087E+01
(PID.TID 0000.0001) %MON dynstat_sss_sd               =   9.5331917934208E-01
(PID.TID 0000.0001) %MON dynstat_sss_del2             =   7.7360734012858E-02
(PID.TID 0000.0001) %MON extforcing_qnet_max          =   3.2067719268799E+02
(PID.TID 0000.0001) %MON extforcing_qnet_min          =  -1.6879369888306E+02
(PID.TID 0000.0001) %MON extforcing_qnet_mean         =  -1.0950167733984E+01
(PID.TID 0000.0001) %MON extforcing_qnet_sd           =   6.1620611037751E+01
(PID.TID 0000.0001) %MON extforcing_qnet_del2         =   7.9140940371822E+00
(PID.TID 0000.0001) %MON extforcing_qsw_max           =   0.0000000000000E+00
(PID.TID 0000.0001) %MON extforcing_qsw_min           =   0.0000000000000E+00
(PID.TID 0000.0001) %MON extforcing_qsw_mean          =   0.0000000000000E+00
(PID.TID 0000.0001) %MON extforcing_qsw_sd            =   0.0000000000000E+00
(PID.TID 0000.0001) %MON extforcing_qsw_del2          =   0.0000000000000E+00
(PID.TID 0000.0001) %MON extforcing_empmr_max         =   0.0000000000000E+00
(PID.TID 0000.0001) %MON extforcing_empmr_min         =   0.0000000000000E+00
(PID.TID 0000.0001) %MON extforcing_empmr_mean        =   0.0000000000000E+00
(PID.TID 0000.0001) %MON extforcing_empmr_sd          =   0.0000000000000E+00
(PID.TID 0000.0001) %MON extforcing_empmr_del2        =   0.0000000000000E+00
(PID.TID 0000.0001) %MON extforcing_fu_max            =   3.2551803737879E-01
(PID.TID 0000.0001) %MON extforcing_fu_min            =  -2.8842484876513E-01
(PID.TID 0000.0001) %MON extforcing_fu_mean           =   1.8902436074324E-02
(PID.TID 0000.0001) %MON extforcing_fu_sd             =   9.4885447310733E-02
(PID.TID 0000.0001) %MON extforcing_fu_del2           =   8.1219318662945E-03
(PID.TID 0000.0001) %MON extforcing_fv_max            =   1.5456981658936E-01
(PID.TID 0000.0001) %MON extforcing_fv_min            =  -1.7961776703596E-01
(PID.TID 0000.0001) %MON extforcing_fv_mean           =  -7.3575076655482E-03
(PID.TID 0000.0001) %MON extforcing_fv_sd             =   4.2046635819665E-02
(PID.TID 0000.0001) %MON extforcing_fv_del2           =   4.5777740322934E-03
(PID.TID 0000.0001) %MON advcfl_uvel_max              =   2.6001533494961E-02
(PID.TID 0000.0001) %MON advcfl_vvel_max              =   1.5980891577384E-02
(PID.TID 0000.0001) %MON advcfl_wvel_max              =   4.9423869812587E-02
(PID.TID 0000.0001) %MON advcfl_W_hf_max              =   5.0214648992278E-02
(PID.TID 0000.0001) %MON pe_b_mean                    =   3.4048343362289E-04
(PID.TID 0000.0001) %MON ke_max                       =   1.8970781836123E-02
(PID.TID 0000.0001) %MON ke_mean                      =   1.9955043399925E-04
(PID.TID 0000.0001) %MON ke_vol                       =   1.3226782436723E+18
(PID.TID 0000.0001) %MON vort_r_min                   =  -5.0225023596142E-07
(PID.TID 0000.0001) %MON vort_r_max                   =   4.6065466122026E-07
(PID.TID 0000.0001) %MON vort_a_mean                  =  -2.5205769104697E-05
(PID.TID 0000.0001) %MON vort_a_sd                    =   7.3403455194291E-05
(PID.TID 0000.0001) %MON vort_p_mean                  =  -3.1758669193661E-05
(PID.TID 0000.0001) %MON vort_p_sd                    =   1.3126398458571E-04
(PID.TID 0000.0001) %MON surfExpan_theta_mean         =   3.9697530379123E-06
(PID.TID 0000.0001) %MON surfExpan_salt_mean          =  -4.5936211763601E-07
(PID.TID 0000.0001) // =======================================================
(PID.TID 0000.0001) // End MONITOR dynamic field statistics
(PID.TID 0000.0001) // =======================================================
time,SST,SSS,fu,fv,Q,E-P,i0,i1,a,b =   5.0976E+06 -3.6948E-01  3.4495E+01 -2.0391E-02 -9.6754E-03  2.2877E+02  0.0000E+00     2     3  4.6667E-01  5.3333E-01
time,fu0,fu1,fu =   5.0976E+06 -1.4435E-02 -2.7199E-02 -2.0391E-02  4.666666666666667E-01  5.333333333333333E-01
 cg2d: Sum(rhs),rhsMax =   2.09640638182407E-12  9.00166221377888E+00
(PID.TID 0000.0001)                    cg2d_init_res =    2.39586682702354E-01
(PID.TID 0000.0001)                       cg2d_iters =    24
(PID.TID 0000.0001)                         cg2d_res =    5.19051172353723E-14
(PID.TID 0000.0001) // =======================================================
(PID.TID 0000.0001) // Begin MONITOR dynamic field statistics
(PID.TID 0000.0001) // =======================================================
(PID.TID 0000.0001) %MON time_tsnumber                =                   119
(PID.TID 0000.0001) %MON time_secondsf                =   5.1408000000000E+06
(PID.TID 0000.0001) %MON dynstat_eta_max              =   1.0085787987878E+00
(PID.TID 0000.0001) %MON dynstat_eta_min              =  -1.5494460897786E+00
(PID.TID 0000.0001) %MON dynstat_eta_mean             =  -1.3154148985970E-15
(PID.TID 0000.0001) %MON dynstat_eta_sd               =   5.1719516296203E-01
(PID.TID 0000.0001) %MON dynstat_eta_del2             =   2.6980815168469E-02
(PID.TID 0000.0001) %MON dynstat_uvel_max             =   1.8786433355343E-01
(PID.TID 0000.0001) %MON dynstat_uvel_min             =  -1.3273771404108E-01
(PID.TID 0000.0001) %MON dynstat_uvel_mean            =   1.2916034221444E-03
(PID.TID 0000.0001) %MON dynstat_uvel_sd              =   1.6044259776624E-02
(PID.TID 0000.0001) %MON dynstat_uvel_del2            =   3.4143475461487E-03
(PID.TID 0000.0001) %MON dynstat_vvel_max             =   1.6394367006037E-01
(PID.TID 0000.0001) %MON dynstat_vvel_min             =  -1.2566347935822E-01
(PID.TID 0000.0001) %MON dynstat_vvel_mean            =   1.5269733774879E-03
(PID.TID 0000.0001) %MON dynstat_vvel_sd              =   1.3346496420879E-02
(PID.TID 0000.0001) %MON dynstat_vvel_del2            =   3.3374409172854E-03
(PID.TID 0000.0001) %MON dynstat_wvel_max             =   1.5634689928969E-04
(PID.TID 0000.0001) %MON dynstat_wvel_min             =  -1.7996812161421E-04
(PID.TID 0000.0001) %MON dynstat_wvel_mean            =   1.4594764030627E-22
(PID.TID 0000.0001) %MON dynstat_wvel_sd              =   1.7613526546318E-05
(PID.TID 0000.0001) %MON dynstat_wvel_del2            =   5.7524747650173E-06
(PID.TID 0000.0001) %MON dynstat_theta_max            =   2.9762658425024E+01
(PID.TID 0000.0001) %MON dynstat_theta_min            =  -1.9900799183737E+00
(PID.TID 0000.0001) %MON dynstat_theta_mean           =   3.5861710909189E+00
(PID.TID 0000.0001) %MON dynstat_theta_sd             =   4.3376902019019E+00
(PID.TID 0000.0001) %MON dynstat_theta_del2           =   1.3975950366097E-01
(PID.TID 0000.0001) %MON dynstat_salt_max             =   3.7381104448093E+01
(PID.TID 0000.0001) %MON dynstat_salt_min             =   2.9883789631186E+01
(PID.TID 0000.0001) %MON dynstat_salt_mean            =   3.4715944566830E+01
(PID.TID 0000.0001) %MON dynstat_salt_sd              =   2.9500735733645E-01
(PID.TID 0000.0001) %MON dynstat_salt_del2            =   2.5083116811943E-02
(PID.TID 0000.0001) %MON dynstat_sst_max              =   2.9762658425024E+01
(PID.TID 0000.0001) %MON dynstat_sst_min              =  -1.9188059894167E+00
(PID.TID 0000.0001) %MON dynstat_sst_mean             =   1.8723019047902E+01
(PID.TID 0000.0001) %MON dynstat_sst_sd               =   8.9809623130050E+00
(PID.TID 0000.0001) %MON dynstat_sst_del2             =   2.6644808074591E-01
(PID.TID 0000.0001) %MON dynstat_sss_max              =   3.7377308944550E+01
(PID.TID 0000.0001) %MON dynstat_sss_min              =   2.9883789631186E+01
(PID.TID 0000.0001) %MON dynstat_sss_mean             =   3.4838685930118E+01
(PID.TID 0000.0001) %MON dynstat_sss_sd               =   9.5321268364780E-01
(PID.TID 0000.0001) %MON dynstat_sss_del2             =   7.7351164569853E-02
(PID.TID 0000.0001) %MON extforcing_qnet_max          =   3.1927811686198E+02
(PID.TID 0000.0001) %MON extforcing_qnet_min          =  -1.6864405924479E+02
(PID.TID 0000.0001) %MON extforcing_qnet_mean         =  -1.0838497984171E+01
(PID.TID 0000.0001) %MON extforcing_qnet_sd           =   6.1023027857854E+01
(PID.TID 0000.0001) %MON extforcing_qnet_del2         =   7.8994969831864E+00
(PID.TID 0000.0001) %MON extforcing_qsw_max           =   0.0000000000000E+00
(PID.TID 0000.0001) %MON extforcing_qsw_min           =   0.0000000000000E+00
(PID.TID 0000.0001) %MON extforcing_qsw_mean          =   0.0000000000000E+00
(PID.TID 0000.0001) %MON extforcing_qsw_sd            =   0.0000000000000E+00
(PID.TID 0000.0001) %MON extforcing_qsw_del2          =   0.0000000000000E+00
(PID.TID 0000.0001) %MON extforcing_empmr_max         =   0.0000000000000E+00
(PID.TID 0000.0001) %MON extforcing_empmr_min         =   0.0000000000000E+00
(PID.TID 0000.0001) %MON extforcing_empmr_mean        =   0.0000000000000E+00
(PID.TID 0000.0001) %MON extforcing_empmr_sd          =   0.0000000000000E+00
(PID.TID 0000.0001) %MON extforcing_empmr_del2        =   0.0000000000000E+00
(PID.TID 0000.0001) %MON extforcing_fu_max            =   3.2648874521255E-01
(PID.TID 0000.0001) %MON extforcing_fu_min            =  -2.9111716349920E-01
(PID.TID 0000.0001) %MON extforcing_fu_mean           =   1.8949535869053E-02
(PID.TID 0000.0001) %MON extforcing_fu_sd             =   9.5028365431322E-02
(PID.TID 0000.0001) %MON extforcing_fu_del2           =   8.1425561549326E-03
(PID.TID 0000.0001) %MON extforcing_fv_max            =   1.5403114557266E-01
(PID.TID 0000.0001) %MON extforcing_fv_min            =  -1.7887474894524E-01
(PID.TID 0000.0001) %MON extforcing_fv_mean           =  -7.3627218405330E-03
(PID.TID 0000.0001) %MON extforcing_fv_sd             =   4.1994212761373E-02
(PID.TID 0000.0001) %MON extforcing_fv_del2           =   4.5756388066726E-03
(PID.TID 0000.0001) %MON advcfl_uvel_max              =   2.6271206523893E-02
(PID.TID 0000.0001) %MON advcfl_vvel_max              =   1.5925812876189E-02
(PID.TID 0000.0001) %MON advcfl_wvel_max              =   5.1539577995232E-02
(PID.TID 0000.0001) %MON advcfl_W_hf_max              =   4.3786447761135E-02
(PID.TID 0000.0001) %MON pe_b_mean                    =   3.4228676684634E-04
(PID.TID 0000.0001) %MON ke_max                       =   1.8432569299275E-02
(PID.TID 0000.0001) %MON ke_mean                      =   1.9872360389954E-04
(PID.TID 0000.0001) %MON ke_vol                       =   1.3226782436723E+18
(PID.TID 0000.0001) %MON vort_r_min                   =  -5.0781339758677E-07
(PID.TID 0000.0001) %MON vort_r_max                   =   4.5790659397690E-07
(PID.TID 0000.0001) %MON vort_a_mean                  =  -2.5205769101107E-05
(PID.TID 0000.0001) %MON vort_a_sd                    =   7.3403454630812E-05
(PID.TID 0000.0001) %MON vort_p_mean                  =  -3.1758669189138E-05
(PID.TID 0000.0001) %MON vort_p_sd                    =   1.3126392301489E-04
(PID.TID 0000.0001) %MON surfExpan_theta_mean         =   3.5985374870144E-06
(PID.TID 0000.0001) %MON surfExpan_salt_mean          =  -5.0174408559132E-07
(PID.TID 0000.0001) // =======================================================
(PID.TID 0000.0001) // End MONITOR dynamic field statistics
(PID.TID 0000.0001) // =======================================================
time,SST,SSS,fu,fv,Q,E-P,i0,i1,a,b =   5.1408E+06 -3.6368E-01  3.4497E+01 -2.0604E-02 -9.3911E-03  2.2836E+02  0.0000E+00     2     3  4.8333E-01  5.1667E-01
time,fu0,fu1,fu =   5.1408E+06 -1.4435E-02 -2.7199E-02 -2.0604E-02  4.833333333333333E-01  5.166666666666666E-01
 cg2d: Sum(rhs),rhsMax =   1.74241177042234E-12  9.15305690586694E+00
(PID.TID 0000.0001)                    cg2d_init_res =    2.30251847492950E-01
(PID.TID 0000.0001)                       cg2d_iters =    24
(PID.TID 0000.0001)                         cg2d_res =    5.11500979358549E-14
(PID.TID 0000.0001) // =======================================================
(PID.TID 0000.0001) // Begin MONITOR dynamic field statistics
(PID.TID 0000.0001) // =======================================================
(PID.TID 0000.0001) %MON time_tsnumber                =                   120
(PID.TID 0000.0001) %MON time_secondsf                =   5.1840000000000E+06
(PID.TID 0000.0001) %MON dynstat_eta_max              =   1.0254284309062E+00
(PID.TID 0000.0001) %MON dynstat_eta_min              =  -1.5541490531297E+00
(PID.TID 0000.0001) %MON dynstat_eta_mean             =  -1.2063494518553E-15
(PID.TID 0000.0001) %MON dynstat_eta_sd               =   5.1850547770361E-01
(PID.TID 0000.0001) %MON dynstat_eta_del2             =   2.6977809765406E-02
(PID.TID 0000.0001) %MON dynstat_uvel_max             =   1.8901375312426E-01
(PID.TID 0000.0001) %MON dynstat_uvel_min             =  -1.3273314093605E-01
(PID.TID 0000.0001) %MON dynstat_uvel_mean            =   1.2867122035956E-03
(PID.TID 0000.0001) %MON dynstat_uvel_sd              =   1.6021398782107E-02
(PID.TID 0000.0001) %MON dynstat_uvel_del2            =   3.4133390188155E-03
(PID.TID 0000.0001) %MON dynstat_vvel_max             =   1.6320095255446E-01
(PID.TID 0000.0001) %MON dynstat_vvel_min             =  -1.2365825355189E-01
(PID.TID 0000.0001) %MON dynstat_vvel_mean            =   1.5394876993915E-03
(PID.TID 0000.0001) %MON dynstat_vvel_sd              =   1.3288850947743E-02
(PID.TID 0000.0001) %MON dynstat_vvel_del2            =   3.3362291130781E-03
(PID.TID 0000.0001) %MON dynstat_wvel_max             =   1.5527335171212E-04
(PID.TID 0000.0001) %MON dynstat_wvel_min             =  -1.7387017862267E-04
(PID.TID 0000.0001) %MON dynstat_wvel_mean            =   5.6821639058735E-22
(PID.TID 0000.0001) %MON dynstat_wvel_sd              =   1.7582475300151E-05
(PID.TID 0000.0001) %MON dynstat_wvel_del2            =   5.7650710415764E-06
(PID.TID 0000.0001) %MON dynstat_theta_max            =   2.9762877045491E+01
(PID.TID 0000.0001) %MON dynstat_theta_min            =  -1.9884891349364E+00
(PID.TID 0000.0001) %MON dynstat_theta_mean           =   3.5861594072271E+00
(PID.TID 0000.0001) %MON dynstat_theta_sd             =   4.3378129406188E+00
(PID.TID 0000.0001) %MON dynstat_theta_del2           =   1.3978374833571E-01
(PID.TID 0000.0001) %MON dynstat_salt_max             =   3.7381242909703E+01
(PID.TID 0000.0001) %MON dynstat_salt_min             =   2.9883967811449E+01
(PID.TID 0000.0001) %MON dynstat_salt_mean            =   3.4715950874411E+01
(PID.TID 0000.0001) %MON dynstat_salt_sd              =   2.9497885699386E-01
(PID.TID 0000.0001) %MON dynstat_salt_del2            =   2.5082017455874E-02
(PID.TID 0000.0001) %MON dynstat_sst_max              =   2.9762877045491E+01
(PID.TID 0000.0001) %MON dynstat_sst_min              =  -1.9188303142532E+00
(PID.TID 0000.0001) %MON dynstat_sst_mean             =   1.8725117503441E+01
(PID.TID 0000.0001) %MON dynstat_sst_sd               =   8.9850872118635E+00
(PID.TID 0000.0001) %MON dynstat_sst_del2             =   2.6660671180371E-01
(PID.TID 0000.0001) %MON dynstat_sss_max              =   3.7376310469297E+01
(PID.TID 0000.0001) %MON dynstat_sss_min              =   2.9883967811449E+01
(PID.TID 0000.0001) %MON dynstat_sss_mean             =   3.4838778284633E+01
(PID.TID 0000.0001) %MON dynstat_sss_sd               =   9.5311487462977E-01
(PID.TID 0000.0001) %MON dynstat_sss_del2             =   7.7344873492177E-02
(PID.TID 0000.0001) %MON extforcing_qnet_max          =   3.1787904103597E+02
(PID.TID 0000.0001) %MON extforcing_qnet_min          =  -1.6849441960653E+02
(PID.TID 0000.0001) %MON extforcing_qnet_mean         =  -1.0726828234357E+01
(PID.TID 0000.0001) %MON extforcing_qnet_sd           =   6.0431801358595E+01
(PID.TID 0000.0001) %MON extforcing_qnet_del2         =   7.8854964479358E+00
(PID.TID 0000.0001) %MON extforcing_qsw_max           =   0.0000000000000E+00
(PID.TID 0000.0001) %MON extforcing_qsw_min           =   0.0000000000000E+00
(PID.TID 0000.0001) %MON extforcing_qsw_mean          =   0.0000000000000E+00
(PID.TID 0000.0001) %MON extforcing_qsw_sd            =   0.0000000000000E+00
(PID.TID 0000.0001) %MON extforcing_qsw_del2          =   0.0000000000000E+00
(PID.TID 0000.0001) %MON extforcing_empmr_max         =   0.0000000000000E+00
(PID.TID 0000.0001) %MON extforcing_empmr_min         =   0.0000000000000E+00
(PID.TID 0000.0001) %MON extforcing_empmr_mean        =   0.0000000000000E+00
(PID.TID 0000.0001) %MON extforcing_empmr_sd          =   0.0000000000000E+00
(PID.TID 0000.0001) %MON extforcing_empmr_del2        =   0.0000000000000E+00
(PID.TID 0000.0001) %MON extforcing_fu_max            =   3.2745945304632E-01
(PID.TID 0000.0001) %MON extforcing_fu_min            =  -2.9380947823326E-01
(PID.TID 0000.0001) %MON extforcing_fu_mean           =   1.8996635663783E-02
(PID.TID 0000.0001) %MON extforcing_fu_sd             =   9.5176367836683E-02
(PID.TID 0000.0001) %MON extforcing_fu_del2           =   8.1645523466021E-03
(PID.TID 0000.0001) %MON extforcing_fv_max            =   1.5349247455597E-01
(PID.TID 0000.0001) %MON extforcing_fv_min            =  -1.7813173085451E-01
(PID.TID 0000.0001) %MON extforcing_fv_mean           =  -7.3679360155177E-03
(PID.TID 0000.0001) %MON extforcing_fv_sd             =   4.1946227161942E-02
(PID.TID 0000.0001) %MON extforcing_fv_del2           =   4.5743140144858E-03
(PID.TID 0000.0001) %MON advcfl_uvel_max              =   2.6431942935946E-02
(PID.TID 0000.0001) %MON advcfl_vvel_max              =   1.5853663826367E-02
(PID.TID 0000.0001) %MON advcfl_wvel_max              =   5.5726040417417E-02
(PID.TID 0000.0001) %MON advcfl_W_hf_max              =   4.2341451805210E-02
(PID.TID 0000.0001) %MON pe_b_mean                    =   3.4402333195997E-04
(PID.TID 0000.0001) %MON ke_max                       =   1.8851644167291E-02
(PID.TID 0000.0001) %MON ke_mean                      =   1.9771275395306E-04
(PID.TID 0000.0001) %MON ke_vol                       =   1.3226782436723E+18
(PID.TID 0000.0001) %MON vort_r_min                   =  -5.1334755125761E-07
(PID.TID 0000.0001) %MON vort_r_max                   =   4.5351881740987E-07
(PID.TID 0000.0001) %MON vort_a_mean                  =  -2.5205769096327E-05
(PID.TID 0000.0001) %MON vort_a_sd                    =   7.3403453258261E-05
(PID.TID 0000.0001) %MON vort_p_mean                  =  -3.1758669183116E-05
(PID.TID 0000.0001) %MON vort_p_sd                    =   1.3126385354014E-04
(PID.TID 0000.0001) %MON surfExpan_theta_mean         =   3.2765423516692E-06
(PID.TID 0000.0001) %MON surfExpan_salt_mean          =  -5.3757723680521E-07
(PID.TID 0000.0001) // =======================================================
(PID.TID 0000.0001) // End MONITOR dynamic field statistics
(PID.TID 0000.0001) // =======================================================
 --> objf_test(bi,bj)   =  0.000000000000000E+00
 --> objf_tracer(bi,bj) =  0.000000000000000E+00
 --> objf_atl(bi,bj)    = -0.114865708507153E+00
  local fc = -0.114865708507153E+00
 global fc = -0.114865708507153E+00
 ph-check fcpertplus =  -0.114865709
(PID.TID 0000.0001)  MDSREADFIELD: opening file: xx_theta.0000000000.001.001.data
 ph-check fcpertminus =  -0.114865705
(PID.TID 0000.0001)  MDSREADFIELD: opening file: xx_theta.0000000000.001.001.data
(PID.TID 0000.0001)  MDSREADFIELD: opening global file: bathymetry.bin
(PID.TID 0000.0001) // =======================================================
(PID.TID 0000.0001) // Field Model R_low (ini_masks_etc) at iteration          1
(PID.TID 0000.0001) // CMIN =         -5.200000000000000E+03
(PID.TID 0000.0001) // CMAX =         -1.200000000000000E+02
(PID.TID 0000.0001) // CINT =          1.881481481481482E+02
(PID.TID 0000.0001) // SYMBOLS (CMIN->CMAX): -abcdefghijklmnopqrstuvwxyz+
(PID.TID 0000.0001) //                  0.0: .
(PID.TID 0000.0001) // RANGE I (Lo:Hi:Step):(  -2:  93:   1)
(PID.TID 0000.0001) // RANGE J (Lo:Hi:Step):(  43:  -2:  -1)
(PID.TID 0000.0001) // RANGE K (Lo:Hi:Step):(   1:   1:   1)
(PID.TID 0000.0001) // =======================================================
(PID.TID 0000.0001) K =   1
(PID.TID 0000.0001) //                I=7       I=17      I=27      I=37      I=47      I=57      I=67      I=77      I=87
(PID.TID 0000.0001) // |--J--|210123456|890123456|890123456|890123456|890123456|890123456|890123456|890123456|890123456|890123
(PID.TID 0000.0001) //     43 ................................................................................................
(PID.TID 0000.0001) //     42 .............................................zyxxmgfeeefefgimnpwwwy..+zyy.....yyyyoiiihhz+......
(PID.TID 0000.0001) //     41 ................................................................................................
(PID.TID 0000.0001) //     40 +qlloqz+.++++zzz++++++..................................................................+++qlloq
(PID.TID 0000.0001) //     39 uslloorzzzzzzzzz+...++.....................................................yxxz........+zvuslloo
(PID.TID 0000.0001) //     38 smqpporzzzzzz+++...........................................................zxxy+......zyyvsmqppo
(PID.TID 0000.0001) //     37 smmmuz..................................................................++...zy+...yttyy.+smmmuz
(PID.TID 0000.0001) //     36 yutt+.........................................mm++....................+++++++znmm.yoowssvuyutt+.
(PID.TID 0000.0001) //     35 w++++.................................+zzz..rrmmkk+...+gghn...........+++....+nmiijlsoopuww++++.
(PID.TID 0000.0001) //     34 +.....................................+vvy.ggqyxv+y.ccdffhim..................+nihhikkihhm+.....
(PID.TID 0000.0001) //     33 w+.....................................uuz---h------aaabdefin+.................zqvddflifffw+....
(PID.TID 0000.0001) //     32 m+.....................................+t----h---------acdfgnn................+++gdffkofffm+....
(PID.TID 0000.0001) //     31 m......................................-----ad--------abddegil..............qbaafccdhqqgddm.....
(PID.TID 0000.0001) //     30 i.....................................f----b--b------------abd............zfbb--fbcdosjfddi.....
(PID.TID 0000.0001) //     29 i...................................tu----e---fjg----------abdf...........eaac--abfmijaadgi.....
(PID.TID 0000.0001) //     28 z.................................+xfl-------------------bdedefi.........qbaa---aemfbbaaejz.....
(PID.TID 0000.0001) //     27 .................xx..............+wfgfpf--------eallc---bbbccefgi...+++x.qb-----akfa---ah.......
(PID.TID 0000.0001) //     26 .................xnn...........+vd---dna------a--aicfna---aabdfghku.++xssuy-----bgca---ci.......
(PID.TID 0000.0001) //     25 .................iiik...oo+...+ivd---doaa-bc--ilglf--aa---aabcghhkll...ssum+xaaacjbaabdjk.......
(PID.TID 0000.0001) //     24 ...............xnheeft.kkk+...uii.aagdm----aa-----a-------bbbcdefjljjju.zummwwbbchba--abi.......
(PID.TID 0000.0001) //     23 ...............xgheefp.iikw...uuw..fihi----fed-----eaaa--bbbbcdfflkjiiiq....zykccefa--abd.......
(PID.TID 0000.0001) //     22 quss...........bbelffslffkk...zz.wqkeeqoheccdfa-----egabaabcdddegghliiiqq......xeeehheehccquss..
(PID.TID 0000.0001) //     21 cbbeir........nbbcdjhqdddiiz.....wqfeelgghmedea-----bibbcddddddefghklnqoo........ieeflhgcccbbeir
(PID.TID 0000.0001) //     20 cbbder.......ldcccdgkccccidd......z.vkkktqqhegg----aaacddddddddefghkiiijl.........nhfa--gfcbbder
(PID.TID 0000.0001) //     19 hcdaaf.......kddosggpaaaibbccx...+z+.....r+nlec---agaaabcddccddefikfgffff...........d---cjhcdaaf
(PID.TID 0000.0001) //     18 hd---d.......kglggvliaaaibbcaaeaiv++...qqzolhecccfdgkaabcdfccdeeikgfgffdd+..........d---djhd---d
(PID.TID 0000.0001) //     17 hc---c.......l.feewlfaaaoaa----aiv.....qqnllslmlofcdbaacceffffhhligfigeddj.........hd---ckhc---c
(PID.TID 0000.0001) //     16 gba--c......tn.ddgnlfdaaqa-----lv.......vnllvllnwv--accivomfffhilhgfffeddjf........re--aeigba--c
(PID.TID 0000.0001) //     15 fb--dpz....+ll.ccdfhmdddlc----av.........otsxoomv---abccddfihgijkhgfffeejfff......+fd---ckfb--dp
(PID.TID 0000.0001) //     14 fc--mcl....weeqbaafilkfend--eagy.........hhstofft----aacdheefijkmjhhjijiffff.....zlfdaaadlfc--mc
(PID.TID 0000.0001) //     13 hcclbbg....nccobaaiddgkffqrqeaal.........eeutqfft------aaceeffhijlkjhhigfffq....+jgfodccflhcclbb
(PID.TID 0000.0001) //     12 hhgaaacw+iiicclemhdddfliigfdcaabfaaaz....ccsurqpc--------abcifffikiiihhggff.....kbbbdfffglhhgaaa
(PID.TID 0000.0001) //     11 kgcaaacbbifccennhbbdefnihgfdccaaaa----..dcccnt.ncab-------aabcdfilhggjiggff....l---abcefjlkgcaaa
(PID.TID 0000.0001) //     10 kfcaaccbdaacfrllfbbdegkmmljhfdddba----d.dcccfx.nyrebaba----abcdgilhfeegijgi..+w--aa-abcfilkfcaac
(PID.TID 0000.0001) //      9 lffcdcccaaaoqsolfdeehikihhlllgfedcccccdmdcccf.vyfaaaaaaaa--abdehmjhfeeefglv.++w-----abcdfklffcdc
(PID.TID 0000.0001) //      8 liffjklcaafddffeeccvznkfffhhhlkjifgjkkfeeddfsyvcaaaaaaccdcccdfgjligedbbceg+.++xffn--cfddefliffjk
(PID.TID 0000.0001) //      7 hmqnnbbkkf--bmbaabbgtykfddeffeeddccdfhlffeelfbaaaaaacddeghgjgjlligeddaaabedfiiiiiisvkfkecchmqnnb
(PID.TID 0000.0001) //      6 cca-------------aabcelttdddedddddccccdfkkiiffbaaaabcdgimmkmefecaaabbbaaabbdfiiiiispmmregifcca---
(PID.TID 0000.0001) //      5 --------a-------aaccehhhiddeddddddcccdfiikomodddefffmlmigedccaaaaaaaababbbdfiijsqgeccccbaa------
(PID.TID 0000.0001) //      4 --ahebaabbbbbeihffgijiiiijpywnnpokkomkiiijmmmolkommmgffeeedccaaaaaabbcccefhmz..yjgeccccbaa--aheb
(PID.TID 0000.0001) //      3 gffhhrpjiiwyy............................yxotmjjjjgfeeeeeeddeffffheddeghjkyy..yqjgeddccdbbgffhhr
(PID.TID 0000.0001) //      2 .............................................zyxxmgfeeefefgimnpwwwy..+zyy.....yyyyoiiihhz+......
(PID.TID 0000.0001) //      1 ................................................................................................
(PID.TID 0000.0001) //      0 +qlloqz+.++++zzz++++++..................................................................+++qlloq
(PID.TID 0000.0001) //     -1 uslloorzzzzzzzzz+...++.....................................................yxxz........+zvuslloo
(PID.TID 0000.0001) //     -2 ................................................................................................
(PID.TID 0000.0001) // =======================================================
(PID.TID 0000.0001) // END OF FIELD                                          =
(PID.TID 0000.0001) // =======================================================
(PID.TID 0000.0001) 
(PID.TID 0000.0001) // =======================================================
(PID.TID 0000.0001) // Field Model Ro_surf (ini_masks_etc) at iteration          1
(PID.TID 0000.0001) // CMIN =          1.000000000000000E+32
(PID.TID 0000.0001) // CMAX =         -1.000000000000000E+32
(PID.TID 0000.0001) // CINT =          0.000000000000000E+00
(PID.TID 0000.0001) // SYMBOLS (CMIN->CMAX): -abcdefghijklmnopqrstuvwxyz+
(PID.TID 0000.0001) //                  0.0: .
(PID.TID 0000.0001) // RANGE I (Lo:Hi:Step):(  -2:  93:   1)
(PID.TID 0000.0001) // RANGE J (Lo:Hi:Step):(  43:  -2:  -1)
(PID.TID 0000.0001) // RANGE K (Lo:Hi:Step):(   1:   1:   1)
(PID.TID 0000.0001) // =======================================================
(PID.TID 0000.0001) // =======================================================
(PID.TID 0000.0001) // END OF FIELD                                          =
(PID.TID 0000.0001) // =======================================================
(PID.TID 0000.0001) 
(PID.TID 0000.0001) // =======================================================
(PID.TID 0000.0001) // Field hFacC at iteration          1
(PID.TID 0000.0001) // CMIN =          1.000000000000000E+00
(PID.TID 0000.0001) // CMAX =          1.000000000000000E+00
(PID.TID 0000.0001) // CINT =          0.000000000000000E+00
(PID.TID 0000.0001) // SYMBOLS (CMIN->CMAX): -abcdefghijklmnopqrstuvwxyz+
(PID.TID 0000.0001) //                  0.0: .
(PID.TID 0000.0001) // RANGE I (Lo:Hi:Step):(  -2:  93:   1)
(PID.TID 0000.0001) // RANGE J (Lo:Hi:Step):(  43:  -2:  -1)
(PID.TID 0000.0001) // RANGE K (Lo:Hi:Step):(   1:   1:   1)
(PID.TID 0000.0001) // =======================================================
(PID.TID 0000.0001) // =======================================================
(PID.TID 0000.0001) // END OF FIELD                                          =
(PID.TID 0000.0001) // =======================================================
(PID.TID 0000.0001) 
(PID.TID 0000.0001) // =======================================================
(PID.TID 0000.0001) // Field hFacW at iteration          1
(PID.TID 0000.0001) // CMIN =          1.000000000000000E+00
(PID.TID 0000.0001) // CMAX =          1.000000000000000E+00
(PID.TID 0000.0001) // CINT =          0.000000000000000E+00
(PID.TID 0000.0001) // SYMBOLS (CMIN->CMAX): -abcdefghijklmnopqrstuvwxyz+
(PID.TID 0000.0001) //                  0.0: .
(PID.TID 0000.0001) // RANGE I (Lo:Hi:Step):(  -2:  93:   1)
(PID.TID 0000.0001) // RANGE J (Lo:Hi:Step):(  43:  -2:  -1)
(PID.TID 0000.0001) // RANGE K (Lo:Hi:Step):(   1:   1:   1)
(PID.TID 0000.0001) // =======================================================
(PID.TID 0000.0001) // =======================================================
(PID.TID 0000.0001) // END OF FIELD                                          =
(PID.TID 0000.0001) // =======================================================
(PID.TID 0000.0001) 
(PID.TID 0000.0001) // =======================================================
(PID.TID 0000.0001) // Field hFacS at iteration          1
(PID.TID 0000.0001) // CMIN =          1.000000000000000E+00
(PID.TID 0000.0001) // CMAX =          1.000000000000000E+00
(PID.TID 0000.0001) // CINT =          0.000000000000000E+00
(PID.TID 0000.0001) // SYMBOLS (CMIN->CMAX): -abcdefghijklmnopqrstuvwxyz+
(PID.TID 0000.0001) //                  0.0: .
(PID.TID 0000.0001) // RANGE I (Lo:Hi:Step):(  -2:  93:   1)
(PID.TID 0000.0001) // RANGE J (Lo:Hi:Step):(  43:  -2:  -1)
(PID.TID 0000.0001) // RANGE K (Lo:Hi:Step):(   1:   1:   1)
(PID.TID 0000.0001) // =======================================================
(PID.TID 0000.0001) // =======================================================
(PID.TID 0000.0001) // END OF FIELD                                          =
(PID.TID 0000.0001) // =======================================================
(PID.TID 0000.0001) 
(PID.TID 0000.0001) %MON surfExpanfCori_max           =   1.4226580169407E-04
(PID.TID 0000.0001) %MON surfExpanfCori_min           =  -1.4226580169407E-04
(PID.TID 0000.0001) %MON surfExpanfCori_mean          =   7.5291817533716E-23
(PID.TID 0000.0001) %MON surfExpanfCori_sd            =   9.6335367303778E-05
(PID.TID 0000.0001) %MON surfExpanfCoriG_max          =   1.4112379284621E-04
(PID.TID 0000.0001) %MON surfExpanfCoriG_min          =  -1.4323448157692E-04
(PID.TID 0000.0001) %MON surfExpanfCoriG_mean         =  -3.6726790147928E-06
(PID.TID 0000.0001) %MON surfExpanfCoriG_sd           =   9.7510077443652E-05
(PID.TID 0000.0001) %MON surfExpanfCoriCos_max        =   1.4535550371427E-04
(PID.TID 0000.0001) %MON surfExpanfCoriCos_min        =   3.0239529651320E-05
(PID.TID 0000.0001) %MON surfExpanfCoriCos_mean       =   1.0260497651149E-04
(PID.TID 0000.0001) %MON surfExpanfCoriCos_sd         =   3.6683828681187E-05
(PID.TID 0000.0001) INI_CG2D: CG2D normalisation factor =  6.5682677425711703E-05
(PID.TID 0000.0001) 
(PID.TID 0000.0001)  MDSREADFIELD: opening global file: lev_t.bin
(PID.TID 0000.0001) // =======================================================
(PID.TID 0000.0001) // Field Initial Temperature at iteration          1
(PID.TID 0000.0001) // CMIN =         -1.900000000000000E+00
(PID.TID 0000.0001) // CMAX =          2.973338890075684E+01
(PID.TID 0000.0001) // CINT =          1.171606996324327E+00
(PID.TID 0000.0001) // SYMBOLS (CMIN->CMAX): -abcdefghijklmnopqrstuvwxyz+
(PID.TID 0000.0001) //                  0.0: .
(PID.TID 0000.0001) // RANGE I (Lo:Hi:Step):(   1:  90:   1)
(PID.TID 0000.0001) // RANGE J (Lo:Hi:Step):(  40:   1:  -1)
(PID.TID 0000.0001) // RANGE K (Lo:Hi:Step):(   1:   1:   1)
(PID.TID 0000.0001) // =======================================================
(PID.TID 0000.0001) K =   1
(PID.TID 0000.0001)                I=10      I=20      I=30      I=40      I=50      I=60      I=70      I=80      I=90
(PID.TID 0000.0001) |--J--|123456789|123456789|123456789|123456789|123456789|123456789|123456789|123456789|123456789|
(PID.TID 0000.0001)     40 bccdd.baa----abdedd..................................................................bbbbb
(PID.TID 0000.0001)     39 ccdddddccbbbaa...ed.....................................................----........bbbbbb
(PID.TID 0000.0001)     38 fffgfedeedddc...........................................................-----......cbbbcde
(PID.TID 0000.0001)     37 ghh..................................................................bc...bbc...edeed.defg
(PID.TID 0000.0001)     36 hh.........................................ddcb....................dcccbabccdd.eefghhihhih
(PID.TID 0000.0001)     35 hh.................................aaab..dddeddd...ffggg...........ccc....ddeeeffghijjjjih
(PID.TID 0000.0001)     34 ...................................babb.deeeeeee.ffffgghh..................ccdffghijkkkj..
(PID.TID 0000.0001)     33 ....................................accdddeeeeefffffgghhiii.................bcfijkkllllkk.
(PID.TID 0000.0001)     32 ....................................bdddeffgffgghhhhhiiijjj................dccglmnmmmmlll.
(PID.TID 0000.0001)     31 ....................................fghiiiijjjjjjkkkkklllkk..............ikkjjmooooonnmm..
(PID.TID 0000.0001)     30 ...................................mmmnmmmmmmmmmmmmmnnnnnmm............moqrrrqrqqqpppooo..
(PID.TID 0000.0001)     29 .................................pqqqqqpppppppppoppoppppponm...........ssssssrrrrrqqqqpp..
(PID.TID 0000.0001)     28 ...............................prssssrrrsssrrrrrrrrrrrrrqqpoo.........uttssstssrssrrrqqq..
(PID.TID 0000.0001)     27 ..............vv..............stuttuuuuutuuuuuuuuuuttttssrrqqq...stuu.vvvuuuuutttttsss....
(PID.TID 0000.0001)     26 ..............vvv...........uuvvvvvwwwwwwwwvvvvvvvvvuuutttsssttv.uuvxxwwwwwwvvvvuuttsr....
(PID.TID 0000.0001)     25 ..............wwwx...xxx...vvvxxxxxyyxxxxxxxxxwwwwwvvvvvuuuuuvwwx...xxxxxxwwwwwwvvutsr....
(PID.TID 0000.0001)     24 ............wwwwxyy.xxyy...wxx.yyyyyyyyyyyxxxxxxxxwwwwwwwvvwwxxyywww.xxxxxxxxxxwwwvvur....
(PID.TID 0000.0001)     23 ............xxxyyyz.xyyy...xxx..yyyyzzyyyyyyyyxxxxxxxxxwwwwwxxxwwwwwx....vwxxxxwwwwwvu....
(PID.TID 0000.0001)     22 w...........xxyyyzyyyyyz...xx.yyzzzzzzzzzzzzzyyzyyyyyyxxwwxxxxwvvvwwxw......yyyyxxxxxxwxxw
(PID.TID 0000.0001)     21 xxx........xxxxyyzzzzzzz+.....zyzzzzzzz++zzzzyyyyyyyyxxwvvwwwwvvvvvvvu........yyyyyyyyyxxx
(PID.TID 0000.0001)     20 xww.......xyyyyxyyzzzzzz+......z.zzzzz+++zzzzzzyyyyyxxxxwvwxwvuuuuuuut.........yyyyxxxxwww
(PID.TID 0000.0001)     19 vvv.......yyyyxwwxyzyyzzzzz...zzz.....++++++z++z+zzzyyyyxxxxwwvvvvvvvu...........yyxxxwwww
(PID.TID 0000.0001)     18 uut.......zzyyywwxyzyyyyzzyzzzzzz...z+z++++zz+++++++zzzyyyyxxwwwvvvvvtt..........yyxxwvvwv
(PID.TID 0000.0001)     17 uus.......z.yyyyyyxyzzyyyyyyyzz.....yzzzzzzzzzzzzzzzzzzyyyyxxwwvuuvvuut.........yyyxxwttvu
(PID.TID 0000.0001)     16 utr......yy.zyyyyxxxxxxxwxxxxy.......yyyyyyyyyyyyyyyyyyyyyyyxxwvvvuuutts........xyyyxwvuuu
(PID.TID 0000.0001)     15 ttrr....xxx.xxxwxwwwwvwwvvvww.........xwxxxxxxxxxxxxxxxxxyyyxwwwvvuttssrr......wxxxxxwwvuu
(PID.TID 0000.0001)     14 ttsq....xyxwwxwvwwwvutuuuuuuu.........wwvwwwwvwvvwwwvwvvwwwwwwvvvuuutssrr.....vwwwwwwwvvvu
(PID.TID 0000.0001)     13 tttr....wwwvvvtttuuuutttssttt.........vvvuuuuuuutttttuuuuuvwwwuuuttttssrr....uvvvvvvvvvvut
(PID.TID 0000.0001)     12 sssssstttutssssrrrrrstrqqrrssqqrrq....uuttssssrrrrrrrrrrrstttssssrssrrqp.....uuuttssttssss
(PID.TID 0000.0001)     11 poprsssrqqqqqrqppooopqpoppppppppppp..sssrrr.rqpppqqqqppppqqqoppqqqqrqqpp....prsrqqqqqppppq
(PID.TID 0000.0001)     10 lllmoooonmnnmnnnnmmmmmmlmmlllmnnnnon.qqqppp.ppppppooooooooonmnnnonnooooo..nmoponnmnnnnnmll
(PID.TID 0000.0001)      9 ihhiiiihhhhhhiiihiiiiihhhiiiijjkkmnllnnnnn.mmmmnnnnmmmmnnmmlklllllklllll.mllmmllkjiijjihhi
(PID.TID 0000.0001)      8 eeeeeeeedefgggffeeffggffffggghiiiijjijklklkkkkkkkklllkkkkjjiiijkjjjjjjkj.kkjjiihggffffedde
(PID.TID 0000.0001)      7 cccccddeedddefeddddddddddefeefffffgggghiiiiiijjjihhgggghhhhhghhhhhhhiiiihiihhgfeddddddcccc
(PID.TID 0000.0001)      6 abbcccddcccccdddddccdddddddccddddddeeeeffggggghhgeddddddeeeeeeefggggghggggffeedccbbbbbbbba
(PID.TID 0000.0001)      5 bbbcccccccccccccccccccccbbccccdddddddcccddeeddeedcbbbbbbccccccdddeeeeeddddddccbbbbaaaaaaab
(PID.TID 0000.0001)      4 bbbbbbbaaabbbbbbbbbbbbaabbabbbbcbbbbbbbbbbbbbbbbbbbabbaaabbbbbbbbbbbbbbbbb..a--aaabbbaaabb
(PID.TID 0000.0001)      3 bbbbaaa-a-............................bbaaaaaaaaaaaaaaaaaaaaaaaaaaaaaaaab..aaaaaaaabbbaaaa
(PID.TID 0000.0001)      2 ..........................................baaaaaaaaaaaa-------aa..aaaa.....aaaaaaaaaaaa...
(PID.TID 0000.0001)      1 ..........................................................................................
(PID.TID 0000.0001) // =======================================================
(PID.TID 0000.0001) // END OF FIELD                                          =
(PID.TID 0000.0001) // =======================================================
(PID.TID 0000.0001) 
(PID.TID 0000.0001)  MDSREADFIELD: opening global file: lev_s.bin
(PID.TID 0000.0001) // =======================================================
(PID.TID 0000.0001) // Field Initial Salinity at iteration          1
(PID.TID 0000.0001) // CMIN =          2.975276947021484E+01
(PID.TID 0000.0001) // CMAX =          3.747562789916992E+01
(PID.TID 0000.0001) // CINT =          2.860317936650029E-01
(PID.TID 0000.0001) // SYMBOLS (CMIN->CMAX): -abcdefghijklmnopqrstuvwxyz+
(PID.TID 0000.0001) //                  0.0: .
(PID.TID 0000.0001) // RANGE I (Lo:Hi:Step):(   1:  90:   1)
(PID.TID 0000.0001) // RANGE J (Lo:Hi:Step):(  40:   1:  -1)
(PID.TID 0000.0001) // RANGE K (Lo:Hi:Step):(   1:   1:   1)
(PID.TID 0000.0001) // =======================================================
(PID.TID 0000.0001) K =   1
(PID.TID 0000.0001)                I=10      I=20      I=30      I=40      I=50      I=60      I=70      I=80      I=90
(PID.TID 0000.0001) |--J--|123456789|123456789|123456789|123456789|123456789|123456789|123456789|123456789|123456789|
(PID.TID 0000.0001)     40 qrrrr.oonnooopqtutt..................................................................mnnop
(PID.TID 0000.0001)     39 rssrrrrrrrqqpn...ut.....................................................mmmm........opqqqr
(PID.TID 0000.0001)     38 ssrrqqqqrrqpo...........................................................lkkll......onoqrrs
(PID.TID 0000.0001)     37 ssr..................................................................hg...lln...qppqr.rrrs
(PID.TID 0000.0001)     36 rr.........................................lkji....................feeegikmoop.pqrssssssss
(PID.TID 0000.0001)     35 rr.................................kkkk..lllllki...jijjj...........aa-....opqrrrrrrrssttss
(PID.TID 0000.0001)     34 ...................................jlll.kklllllk.ijkkkjih..................hlpqrqrrsstts..
(PID.TID 0000.0001)     33 ....................................iklkkkkkkkkkjkkjjjjjjii.................jmprrsstttttt.
(PID.TID 0000.0001)     32 ....................................iklllkllllllllkkkkkkkji................gilpstuuttuuut.
(PID.TID 0000.0001)     31 ....................................lmnonnnnoooonnmmmmllkjj..............loopqtvvvuuuuuu..
(PID.TID 0000.0001)     30 ...................................pppppppqqqqpppoooonnmlkk............ptvxwwvvwvvvvvvvu..
(PID.TID 0000.0001)     29 .................................pqqrqqqqqqrrrqqppqqqpponmll...........vxxxxxxwwwwwxwwxw..
(PID.TID 0000.0001)     28 ...............................prrrrrqqrrrrrsrrsrssssssrqonmm.........wxxxxxxxyyyyyyyyxx..
(PID.TID 0000.0001)     27 ..............xx..............prrrrrrrrrssssssstttssssssrqpoop...uwww.wwxxxyyy++zzzzyy....
(PID.TID 0000.0001)     26 ..............wxx...........ppqrrrrrrsssrrstsstttssrrrrrrrqppqqp.wwwvvwwwwwxyy+++zzyxw....
(PID.TID 0000.0001)     25 ..............wxxv...kkk...ooopqrrrrrssrrrrrrrssssqqpppppppppppoo...vvutuuvvwxyyyxxvvu....
(PID.TID 0000.0001)     24 ............uvvwwur.lmlk...nmm.pqqqqrrrrrqqqqrrqqrpppppooooonmmmnooo.uuuuuuttuvvvuvuut....
(PID.TID 0000.0001)     23 ............vvuvtqp.lmml...mln..ppppqpqppppppqpppppppppqppponnnnnoopm....xvuuuvvvvuuut....
(PID.TID 0000.0001)     22 r...........vuttsqqpnppn...mm.oppqqrrqqqqqqppppqqrrrqqqrrppppoopooomjj......uuvvvvvuttssrr
(PID.TID 0000.0001)     21 qmm........ttsssssssrsqon.....opqqqqqqqrrrrqqqssssssrrrrrrrrpqqqppomll........tvvvvuttssrr
(PID.TID 0000.0001)     20 sqq.......sttssrrsrrrrpol......p.qrqpqrrrrrrrstttttsssrrsssrqrrrrqqqpo.........wwwvvvuuutt
(PID.TID 0000.0001)     19 tsr.......ssssrrrrpppppnmmm...oqq.....qrqqsrrstttuuuttssttssrrssrrrrqq...........wwwvuvvvv
(PID.TID 0000.0001)     18 wut.......ssrrrrrqppppppppoooorrr...poqqqprrrttttuuutuuuuuutttttttutsss..........yyxwwxwxx
(PID.TID 0000.0001)     17 wwu.......s.rrrrrrqppppqqqqqqqr.....rrsrqrsssuusrtuuuvvvwwvvvuuuuutttss.........xyzyyyyxxx
(PID.TID 0000.0001)     16 vvt......ss.qrrssrqrqpqrrrrrrr.......ssrrstsstusrsuuuvwwwwxxwwvvvuttttsr........yz+zzzxwww
(PID.TID 0000.0001)     15 utss....stt.rrssstttsrrsrstsr.........ssstttssttsuuttuvvvvwxwwwwwuttsssrr......xyyyyxyyxwv
(PID.TID 0000.0001)     14 utts....sstrrssstuuuuuuuuuutt.........stttuutttttttuttttttuvvvvvvutsrqrrr.....vxxwwwwxwvwv
(PID.TID 0000.0001)     13 uuut....ttttttttuuuuuvtuuuuuu.........ttttuutttttttuutsssstttttstsqrqqppp....uwwwvuvvvutvv
(PID.TID 0000.0001)     12 ttttttttttttttttttttttssuuuuutuuut....tttttttttttsssssrrrrrrrqqqqqppppoo.....rvvuuttttttuu
(PID.TID 0000.0001)     11 rqsttttttttuuttttsssssrrstttttttsss..ttttts.tsssrrrrqqqqqppppoonnooooooo....oruttttsssrqrs
(PID.TID 0000.0001)     10 pppqrssrqqrqpqrssrrqqqqqqrrrrrrrrrrs.sssssr.rssrrqqpppppppooooonnnoooonn..moqrrrqqqqqqqqqq
(PID.TID 0000.0001)      9 oonooooooooonnnooooooooooppppppqqqqqrrrqrq.pppqqqqqppppppppppoooooooooll.lmoqqqqppooooopoo
(PID.TID 0000.0001)      8 nnnoonooooooonnnnnnnoooonoonoooppopqqqqqqqppopppqqqpppppppppppppppooopon.lnopppoooonnnnooo
(PID.TID 0000.0001)      7 ooooooooooopponnnooooooonnnnnonnooooooooopppppppoooooooooopppppppppoopqnnmnoooonnnonnnnnno
(PID.TID 0000.0001)      6 oooonnoonnnnooooooooooooonnnnnnnnnnnnnnnnoooopppooooooooooooooppppppppppoooooooonnnnnmnnnn
(PID.TID 0000.0001)      5 oooonnnnnnnnnnnnnnnnnoooooonnnnnnonnnnnnnnnoooooooooooonnnnnnooooooopoooonoooonnnnnnnooooo
(PID.TID 0000.0001)      4 oooonnnooonnnnnnnnnnnnnnoooooonnnooooonnnooooooooppponnnnmmmnnnnmnnoonnnnn..nnnooooooooooo
(PID.TID 0000.0001)      3 ooonnnnnnn............................nnoooooonnooooonnnnnnnoonnnnnnnnmmm..ooopooooooooooo
(PID.TID 0000.0001)      2 ..........................................pppooooonnnnnnoooppppo..nnnn.....qqqpppoooooo...
(PID.TID 0000.0001)      1 ..........................................................................................
(PID.TID 0000.0001) // =======================================================
(PID.TID 0000.0001) // END OF FIELD                                          =
(PID.TID 0000.0001) // =======================================================
(PID.TID 0000.0001) 
(PID.TID 0000.0001) Start initial hydrostatic pressure computation
(PID.TID 0000.0001) Pressure is predetermined for buoyancyRelation OCEANIC
(PID.TID 0000.0001) 
(PID.TID 0000.0001)  MDSREADFIELD: opening file: xx_theta.0000000000.001.001.data
(PID.TID 0000.0001)  MDSREADFIELD: opening file: xx_salt.0000000000.001.001.data
(PID.TID 0000.0001)  MDSREADFIELD: opening file: xx_diffkr.0000000000.001.001.data
(PID.TID 0000.0001)  MDSREADFIELD: opening global file: trenberth_taux.bin
(PID.TID 0000.0001)  MDSREADFIELD: opening global file: trenberth_tauy.bin
(PID.TID 0000.0001)  MDSREADFIELD: opening global file: ncep_qnet.bin
(PID.TID 0000.0001)  MDSREADFIELD: opening global file: lev_sst.bin
(PID.TID 0000.0001)  MDSREADFIELD: opening global file: lev_sss.bin
(PID.TID 0000.0001) // =======================================================
(PID.TID 0000.0001) // Model current state
(PID.TID 0000.0001) // =======================================================
(PID.TID 0000.0001) 
S/R EXTERNAL_FIELDS_LOAD: Reading new data:   12    1         0  0.000000000000E+00
(PID.TID 0000.0001)  MDSREADFIELD: opening global file: trenberth_taux.bin
(PID.TID 0000.0001)  MDSREADFIELD: opening global file: trenberth_taux.bin
(PID.TID 0000.0001)  MDSREADFIELD: opening global file: trenberth_tauy.bin
(PID.TID 0000.0001)  MDSREADFIELD: opening global file: trenberth_tauy.bin
(PID.TID 0000.0001)  MDSREADFIELD: opening global file: ncep_qnet.bin
(PID.TID 0000.0001)  MDSREADFIELD: opening global file: ncep_qnet.bin
(PID.TID 0000.0001)  MDSREADFIELD: opening global file: lev_sst.bin
(PID.TID 0000.0001)  MDSREADFIELD: opening global file: lev_sst.bin
(PID.TID 0000.0001)  MDSREADFIELD: opening global file: lev_sss.bin
(PID.TID 0000.0001)  MDSREADFIELD: opening global file: lev_sss.bin
time,SST,SSS,fu,fv,Q,E-P,i0,i1,a,b =   0.0000E+00  5.3151E-02  3.4364E+01 -4.0500E-02 -6.3753E-02  2.6510E+02  0.0000E+00    12     1  5.0000E-01  5.0000E-01
time,fu0,fu1,fu =   0.0000E+00 -4.5368E-02 -3.5633E-02 -4.0500E-02  5.000000000000000E-01  5.000000000000000E-01
(PID.TID 0000.0001)  MDSREADFIELD: opening file: xx_tauu.0000000000.001.001.data
(PID.TID 0000.0001)  MDSREADFIELD: opening file: xx_tauv.0000000000.001.001.data
(PID.TID 0000.0001)  MDSREADFIELD: opening file: xx_sflux.0000000000.001.001.data
(PID.TID 0000.0001)  MDSREADFIELD: opening file: xx_hflux.0000000000.001.001.data
 cg2d: Sum(rhs),rhsMax =  -5.41233724504764E-16  2.53364304519873E+00
time,SST,SSS,fu,fv,Q,E-P,i0,i1,a,b =   4.3200E+04  8.3327E-02  3.4375E+01 -4.0338E-02 -6.3536E-02  2.6512E+02  0.0000E+00    12     1  5.1667E-01  4.8333E-01
time,fu0,fu1,fu =   4.3200E+04 -4.5368E-02 -3.5633E-02 -4.0338E-02  5.166666666666667E-01  4.833333333333333E-01
 cg2d: Sum(rhs),rhsMax =   2.75682254802234E-14  5.05307478634997E+00
time,SST,SSS,fu,fv,Q,E-P,i0,i1,a,b =   8.6400E+04  1.1350E-01  3.4387E+01 -4.0176E-02 -6.3320E-02  2.6514E+02  0.0000E+00    12     1  5.3333E-01  4.6667E-01
time,fu0,fu1,fu =   8.6400E+04 -4.5368E-02 -3.5633E-02 -4.0176E-02  5.333333333333333E-01  4.666666666666667E-01
 cg2d: Sum(rhs),rhsMax =   6.83758605291018E-14  6.32564766002464E+00
time,SST,SSS,fu,fv,Q,E-P,i0,i1,a,b =   1.2960E+05  1.4368E-01  3.4399E+01 -4.0014E-02 -6.3103E-02  2.6516E+02  0.0000E+00    12     1  5.5000E-01  4.5000E-01
time,fu0,fu1,fu =   1.2960E+05 -4.5368E-02 -3.5633E-02 -4.0014E-02  5.500000000000000E-01  4.500000000000000E-01
 cg2d: Sum(rhs),rhsMax =   8.09179112604141E-14  6.76202107413721E+00
time,SST,SSS,fu,fv,Q,E-P,i0,i1,a,b =   1.7280E+05  1.7385E-01  3.4410E+01 -3.9851E-02 -6.2886E-02  2.6519E+02  0.0000E+00    12     1  5.6667E-01  4.3333E-01
time,fu0,fu1,fu =   1.7280E+05 -4.5368E-02 -3.5633E-02 -3.9851E-02  5.666666666666667E-01  4.333333333333333E-01
 cg2d: Sum(rhs),rhsMax =   9.58816359641901E-14  6.91128535917370E+00
time,SST,SSS,fu,fv,Q,E-P,i0,i1,a,b =   2.1600E+05  2.0403E-01  3.4422E+01 -3.9689E-02 -6.2670E-02  2.6521E+02  0.0000E+00    12     1  5.8333E-01  4.1667E-01
time,fu0,fu1,fu =   2.1600E+05 -4.5368E-02 -3.5633E-02 -3.9689E-02  5.833333333333334E-01  4.166666666666666E-01
 cg2d: Sum(rhs),rhsMax =  -3.21279461368285E-14  6.96038704691245E+00
time,SST,SSS,fu,fv,Q,E-P,i0,i1,a,b =   2.5920E+05  2.3421E-01  3.4434E+01 -3.9527E-02 -6.2453E-02  2.6523E+02  0.0000E+00    12     1  6.0000E-01  4.0000E-01
time,fu0,fu1,fu =   2.5920E+05 -4.5368E-02 -3.5633E-02 -3.9527E-02  6.000000000000000E-01  4.000000000000000E-01
 cg2d: Sum(rhs),rhsMax =  -5.62011374938276E-14  7.26221759046288E+00
time,SST,SSS,fu,fv,Q,E-P,i0,i1,a,b =   3.0240E+05  2.6438E-01  3.4446E+01 -3.9365E-02 -6.2237E-02  2.6525E+02  0.0000E+00    12     1  6.1667E-01  3.8333E-01
time,fu0,fu1,fu =   3.0240E+05 -4.5368E-02 -3.5633E-02 -3.9365E-02  6.166666666666667E-01  3.833333333333333E-01
 cg2d: Sum(rhs),rhsMax =  -1.21171573209261E-13  7.87499194900245E+00
time,SST,SSS,fu,fv,Q,E-P,i0,i1,a,b =   3.4560E+05  2.9456E-01  3.4457E+01 -3.9202E-02 -6.2020E-02  2.6528E+02  0.0000E+00    12     1  6.3333E-01  3.6667E-01
time,fu0,fu1,fu =   3.4560E+05 -4.5368E-02 -3.5633E-02 -3.9202E-02  6.333333333333333E-01  3.666666666666667E-01
 cg2d: Sum(rhs),rhsMax =  -1.09138392767605E-13  8.21213972807561E+00
time,SST,SSS,fu,fv,Q,E-P,i0,i1,a,b =   3.8880E+05  3.2473E-01  3.4469E+01 -3.9040E-02 -6.1804E-02  2.6530E+02  0.0000E+00    12     1  6.5000E-01  3.5000E-01
time,fu0,fu1,fu =   3.8880E+05 -4.5368E-02 -3.5633E-02 -3.9040E-02  6.500000000000000E-01  3.500000000000000E-01
 cg2d: Sum(rhs),rhsMax =  -2.36569444589385E-13  8.31512136376637E+00
time,SST,SSS,fu,fv,Q,E-P,i0,i1,a,b =   4.3200E+05  3.5491E-01  3.4481E+01 -3.8878E-02 -6.1587E-02  2.6532E+02  0.0000E+00    12     1  6.6667E-01  3.3333E-01
time,fu0,fu1,fu =   4.3200E+05 -4.5368E-02 -3.5633E-02 -3.8878E-02  6.666666666666666E-01  3.333333333333334E-01
 cg2d: Sum(rhs),rhsMax =  -6.37601950403965E-13  8.25257067290291E+00
time,SST,SSS,fu,fv,Q,E-P,i0,i1,a,b =   4.7520E+05  3.8508E-01  3.4492E+01 -3.8716E-02 -6.1371E-02  2.6534E+02  0.0000E+00    12     1  6.8333E-01  3.1667E-01
time,fu0,fu1,fu =   4.7520E+05 -4.5368E-02 -3.5633E-02 -3.8716E-02  6.833333333333333E-01  3.166666666666667E-01
 cg2d: Sum(rhs),rhsMax =  -7.34925141576692E-13  8.09293762885828E+00
time,SST,SSS,fu,fv,Q,E-P,i0,i1,a,b =   5.1840E+05  4.1526E-01  3.4504E+01 -3.8553E-02 -6.1154E-02  2.6537E+02  0.0000E+00    12     1  7.0000E-01  3.0000E-01
time,fu0,fu1,fu =   5.1840E+05 -4.5368E-02 -3.5633E-02 -3.8553E-02  7.000000000000000E-01  3.000000000000000E-01
 cg2d: Sum(rhs),rhsMax =  -9.44378256151346E-13  8.55637530605071E+00
time,SST,SSS,fu,fv,Q,E-P,i0,i1,a,b =   5.6160E+05  4.4544E-01  3.4516E+01 -3.8391E-02 -6.0938E-02  2.6539E+02  0.0000E+00    12     1  7.1667E-01  2.8333E-01
time,fu0,fu1,fu =   5.6160E+05 -4.5368E-02 -3.5633E-02 -3.8391E-02  7.166666666666667E-01  2.833333333333333E-01
 cg2d: Sum(rhs),rhsMax =  -8.97908483676879E-13  9.25214403713224E+00
time,SST,SSS,fu,fv,Q,E-P,i0,i1,a,b =   6.0480E+05  4.7561E-01  3.4527E+01 -3.8229E-02 -6.0721E-02  2.6541E+02  0.0000E+00    12     1  7.3333E-01  2.6667E-01
time,fu0,fu1,fu =   6.0480E+05 -4.5368E-02 -3.5633E-02 -3.8229E-02  7.333333333333333E-01  2.666666666666667E-01
 cg2d: Sum(rhs),rhsMax =  -5.69594718613509E-13  9.75412758742916E+00
time,SST,SSS,fu,fv,Q,E-P,i0,i1,a,b =   6.4800E+05  5.0579E-01  3.4539E+01 -3.8067E-02 -6.0505E-02  2.6543E+02  0.0000E+00    12     1  7.5000E-01  2.5000E-01
time,fu0,fu1,fu =   6.4800E+05 -4.5368E-02 -3.5633E-02 -3.8067E-02  7.500000000000000E-01  2.500000000000000E-01
 cg2d: Sum(rhs),rhsMax =  -6.11273184847327E-13  1.00472791850534E+01
time,SST,SSS,fu,fv,Q,E-P,i0,i1,a,b =   6.9120E+05  5.3596E-01  3.4551E+01 -3.7904E-02 -6.0288E-02  2.6546E+02  0.0000E+00    12     1  7.6667E-01  2.3333E-01
time,fu0,fu1,fu =   6.9120E+05 -4.5368E-02 -3.5633E-02 -3.7904E-02  7.666666666666667E-01  2.333333333333333E-01
 cg2d: Sum(rhs),rhsMax =  -7.87524559453523E-13  1.01282964952822E+01
time,SST,SSS,fu,fv,Q,E-P,i0,i1,a,b =   7.3440E+05  5.6614E-01  3.4563E+01 -3.7742E-02 -6.0072E-02  2.6548E+02  0.0000E+00    12     1  7.8333E-01  2.1667E-01
time,fu0,fu1,fu =   7.3440E+05 -4.5368E-02 -3.5633E-02 -3.7742E-02  7.833333333333333E-01  2.166666666666667E-01
 cg2d: Sum(rhs),rhsMax =  -6.46880118915227E-13  1.00066236471322E+01
time,SST,SSS,fu,fv,Q,E-P,i0,i1,a,b =   7.7760E+05  5.9632E-01  3.4574E+01 -3.7580E-02 -5.9855E-02  2.6550E+02  0.0000E+00    12     1  8.0000E-01  2.0000E-01
time,fu0,fu1,fu =   7.7760E+05 -4.5368E-02 -3.5633E-02 -3.7580E-02  8.000000000000000E-01  2.000000000000000E-01
 cg2d: Sum(rhs),rhsMax =  -9.14761322245994E-13  9.70409645617096E+00
time,SST,SSS,fu,fv,Q,E-P,i0,i1,a,b =   8.2080E+05  6.2649E-01  3.4586E+01 -3.7418E-02 -5.9638E-02  2.6552E+02  0.0000E+00    12     1  8.1667E-01  1.8333E-01
time,fu0,fu1,fu =   8.2080E+05 -4.5368E-02 -3.5633E-02 -3.7418E-02  8.166666666666667E-01  1.833333333333333E-01
 cg2d: Sum(rhs),rhsMax =  -1.26726233673491E-12  9.47667283578010E+00
time,SST,SSS,fu,fv,Q,E-P,i0,i1,a,b =   8.6400E+05  6.5667E-01  3.4598E+01 -3.7255E-02 -5.9422E-02  2.6555E+02  0.0000E+00    12     1  8.3333E-01  1.6667E-01
time,fu0,fu1,fu =   8.6400E+05 -4.5368E-02 -3.5633E-02 -3.7255E-02  8.333333333333334E-01  1.666666666666666E-01
 cg2d: Sum(rhs),rhsMax =  -5.99010424595647E-13  1.03748401635911E+01
time,SST,SSS,fu,fv,Q,E-P,i0,i1,a,b =   9.0720E+05  6.8684E-01  3.4609E+01 -3.7093E-02 -5.9205E-02  2.6557E+02  0.0000E+00    12     1  8.5000E-01  1.5000E-01
time,fu0,fu1,fu =   9.0720E+05 -4.5368E-02 -3.5633E-02 -3.7093E-02  8.500000000000000E-01  1.500000000000000E-01
 cg2d: Sum(rhs),rhsMax =  -1.14764447944893E-12  1.11482726022296E+01
time,SST,SSS,fu,fv,Q,E-P,i0,i1,a,b =   9.5040E+05  7.1702E-01  3.4621E+01 -3.6931E-02 -5.8989E-02  2.6559E+02  0.0000E+00    12     1  8.6667E-01  1.3333E-01
time,fu0,fu1,fu =   9.5040E+05 -4.5368E-02 -3.5633E-02 -3.6931E-02  8.666666666666667E-01  1.333333333333333E-01
 cg2d: Sum(rhs),rhsMax =  -6.44918146663898E-13  1.17644190527000E+01
time,SST,SSS,fu,fv,Q,E-P,i0,i1,a,b =   9.9360E+05  7.4719E-01  3.4633E+01 -3.6769E-02 -5.8772E-02  2.6561E+02  0.0000E+00    12     1  8.8333E-01  1.1667E-01
time,fu0,fu1,fu =   9.9360E+05 -4.5368E-02 -3.5633E-02 -3.6769E-02  8.833333333333333E-01  1.166666666666667E-01
 cg2d: Sum(rhs),rhsMax =  -7.97984942013663E-13  1.21959720875453E+01
time,SST,SSS,fu,fv,Q,E-P,i0,i1,a,b =   1.0368E+06  7.7737E-01  3.4644E+01 -3.6606E-02 -5.8556E-02  2.6564E+02  0.0000E+00    12     1  9.0000E-01  1.0000E-01
time,fu0,fu1,fu =   1.0368E+06 -4.5368E-02 -3.5633E-02 -3.6606E-02  9.000000000000000E-01  9.999999999999998E-02
 cg2d: Sum(rhs),rhsMax =  -9.61489568518381E-13  1.24221987652468E+01
time,SST,SSS,fu,fv,Q,E-P,i0,i1,a,b =   1.0800E+06  8.0755E-01  3.4656E+01 -3.6444E-02 -5.8339E-02  2.6566E+02  0.0000E+00    12     1  9.1667E-01  8.3333E-02
time,fu0,fu1,fu =   1.0800E+06 -4.5368E-02 -3.5633E-02 -3.6444E-02  9.166666666666666E-01  8.333333333333337E-02
 cg2d: Sum(rhs),rhsMax =  -1.13871065354765E-12  1.24298971531288E+01
time,SST,SSS,fu,fv,Q,E-P,i0,i1,a,b =   1.1232E+06  8.3772E-01  3.4668E+01 -3.6282E-02 -5.8123E-02  2.6568E+02  0.0000E+00    12     1  9.3333E-01  6.6667E-02
time,fu0,fu1,fu =   1.1232E+06 -4.5368E-02 -3.5633E-02 -3.6282E-02  9.333333333333333E-01  6.666666666666665E-02
 cg2d: Sum(rhs),rhsMax =  -1.07396383453029E-12  1.22139653314688E+01
time,SST,SSS,fu,fv,Q,E-P,i0,i1,a,b =   1.1664E+06  8.6790E-01  3.4679E+01 -3.6120E-02 -5.7906E-02  2.6570E+02  0.0000E+00    12     1  9.5000E-01  5.0000E-02
time,fu0,fu1,fu =   1.1664E+06 -4.5368E-02 -3.5633E-02 -3.6120E-02  9.500000000000000E-01  5.000000000000004E-02
 cg2d: Sum(rhs),rhsMax =  -9.55707735172950E-13  1.17775992285683E+01
time,SST,SSS,fu,fv,Q,E-P,i0,i1,a,b =   1.2096E+06  8.9807E-01  3.4691E+01 -3.5957E-02 -5.7690E-02  2.6573E+02  0.0000E+00    12     1  9.6667E-01  3.3333E-02
time,fu0,fu1,fu =   1.2096E+06 -4.5368E-02 -3.5633E-02 -3.5957E-02  9.666666666666667E-01  3.333333333333333E-02
 cg2d: Sum(rhs),rhsMax =  -1.24854640515260E-12  1.11321543548344E+01
time,SST,SSS,fu,fv,Q,E-P,i0,i1,a,b =   1.2528E+06  9.2825E-01  3.4703E+01 -3.5795E-02 -5.7473E-02  2.6575E+02  0.0000E+00    12     1  9.8333E-01  1.6667E-02
time,fu0,fu1,fu =   1.2528E+06 -4.5368E-02 -3.5633E-02 -3.5795E-02  9.833333333333333E-01  1.666666666666672E-02
 cg2d: Sum(rhs),rhsMax =  -1.42339265374325E-12  1.02967139425420E+01
S/R EXTERNAL_FIELDS_LOAD: Reading new data:    1    2        30  1.296000000000E+06
(PID.TID 0000.0001)  MDSREADFIELD: opening global file: trenberth_taux.bin
(PID.TID 0000.0001)  MDSREADFIELD: opening global file: trenberth_taux.bin
(PID.TID 0000.0001)  MDSREADFIELD: opening global file: trenberth_tauy.bin
(PID.TID 0000.0001)  MDSREADFIELD: opening global file: trenberth_tauy.bin
(PID.TID 0000.0001)  MDSREADFIELD: opening global file: ncep_qnet.bin
(PID.TID 0000.0001)  MDSREADFIELD: opening global file: ncep_qnet.bin
(PID.TID 0000.0001)  MDSREADFIELD: opening global file: lev_sst.bin
(PID.TID 0000.0001)  MDSREADFIELD: opening global file: lev_sst.bin
(PID.TID 0000.0001)  MDSREADFIELD: opening global file: lev_sss.bin
(PID.TID 0000.0001)  MDSREADFIELD: opening global file: lev_sss.bin
time,SST,SSS,fu,fv,Q,E-P,i0,i1,a,b =   1.2960E+06  9.5843E-01  3.4715E+01 -3.5633E-02 -5.7257E-02  2.6577E+02  0.0000E+00     1     2  0.0000E+00  1.0000E+00
time,fu0,fu1,fu =   1.2960E+06 -3.5633E-02 -1.4435E-02 -3.5633E-02  0.000000000000000E+00  1.000000000000000E+00
 cg2d: Sum(rhs),rhsMax =  -1.52411416820541E-12  9.29740447868462E+00
time,SST,SSS,fu,fv,Q,E-P,i0,i1,a,b =   1.3392E+06  9.3359E-01  3.4710E+01 -3.5280E-02 -5.6596E-02  2.6535E+02  0.0000E+00     1     2  1.6667E-02  9.8333E-01
time,fu0,fu1,fu =   1.3392E+06 -3.5633E-02 -1.4435E-02 -3.5280E-02  1.666666666666667E-02  9.833333333333333E-01
 cg2d: Sum(rhs),rhsMax =  -1.50814777333252E-12  9.11143530542104E+00
time,SST,SSS,fu,fv,Q,E-P,i0,i1,a,b =   1.3824E+06  9.0875E-01  3.4705E+01 -3.4926E-02 -5.5936E-02  2.6493E+02  0.0000E+00     1     2  3.3333E-02  9.6667E-01
time,fu0,fu1,fu =   1.3824E+06 -3.5633E-02 -1.4435E-02 -3.4926E-02  3.333333333333333E-02  9.666666666666667E-01
 cg2d: Sum(rhs),rhsMax =  -1.09937059455945E-12  9.23484344308868E+00
time,SST,SSS,fu,fv,Q,E-P,i0,i1,a,b =   1.4256E+06  8.8391E-01  3.4700E+01 -3.4573E-02 -5.5276E-02  2.6451E+02  0.0000E+00     1     2  5.0000E-02  9.5000E-01
time,fu0,fu1,fu =   1.4256E+06 -3.5633E-02 -1.4435E-02 -3.4573E-02  5.000000000000000E-02  9.500000000000000E-01
 cg2d: Sum(rhs),rhsMax =  -1.22524906887023E-12  9.27184126245128E+00
time,SST,SSS,fu,fv,Q,E-P,i0,i1,a,b =   1.4688E+06  8.5907E-01  3.4695E+01 -3.4220E-02 -5.4615E-02  2.6408E+02  0.0000E+00     1     2  6.6667E-02  9.3333E-01
time,fu0,fu1,fu =   1.4688E+06 -3.5633E-02 -1.4435E-02 -3.4220E-02  6.666666666666667E-02  9.333333333333333E-01
 cg2d: Sum(rhs),rhsMax =  -1.15812220924383E-12  9.21972116015675E+00
time,SST,SSS,fu,fv,Q,E-P,i0,i1,a,b =   1.5120E+06  8.3424E-01  3.4690E+01 -3.3866E-02 -5.3955E-02  2.6366E+02  0.0000E+00     1     2  8.3333E-02  9.1667E-01
time,fu0,fu1,fu =   1.5120E+06 -3.5633E-02 -1.4435E-02 -3.3866E-02  8.333333333333333E-02  9.166666666666666E-01
 cg2d: Sum(rhs),rhsMax =  -1.38793143644733E-12  9.07797566457558E+00
time,SST,SSS,fu,fv,Q,E-P,i0,i1,a,b =   1.5552E+06  8.0940E-01  3.4685E+01 -3.3513E-02 -5.3295E-02  2.6324E+02  0.0000E+00     1     2  1.0000E-01  9.0000E-01
time,fu0,fu1,fu =   1.5552E+06 -3.5633E-02 -1.4435E-02 -3.3513E-02  1.000000000000000E-01  9.000000000000000E-01
 cg2d: Sum(rhs),rhsMax =  -6.97240876146310E-13  8.84823989188512E+00
time,SST,SSS,fu,fv,Q,E-P,i0,i1,a,b =   1.5984E+06  7.8456E-01  3.4680E+01 -3.3160E-02 -5.2634E-02  2.6282E+02  0.0000E+00     1     2  1.1667E-01  8.8333E-01
time,fu0,fu1,fu =   1.5984E+06 -3.5633E-02 -1.4435E-02 -3.3160E-02  1.166666666666667E-01  8.833333333333333E-01
 cg2d: Sum(rhs),rhsMax =  -8.99585961278149E-13  8.53412826919105E+00
time,SST,SSS,fu,fv,Q,E-P,i0,i1,a,b =   1.6416E+06  7.5972E-01  3.4675E+01 -3.2807E-02 -5.1974E-02  2.6240E+02  0.0000E+00     1     2  1.3333E-01  8.6667E-01
time,fu0,fu1,fu =   1.6416E+06 -3.5633E-02 -1.4435E-02 -3.2807E-02  1.333333333333333E-01  8.666666666666667E-01
 cg2d: Sum(rhs),rhsMax =  -7.04145075580698E-13  8.14100489343559E+00
time,SST,SSS,fu,fv,Q,E-P,i0,i1,a,b =   1.6848E+06  7.3488E-01  3.4671E+01 -3.2453E-02 -5.1313E-02  2.6198E+02  0.0000E+00     1     2  1.5000E-01  8.5000E-01
time,fu0,fu1,fu =   1.6848E+06 -3.5633E-02 -1.4435E-02 -3.2453E-02  1.500000000000000E-01  8.500000000000000E-01
 cg2d: Sum(rhs),rhsMax =  -1.17621190565131E-12  7.67572633379955E+00
time,SST,SSS,fu,fv,Q,E-P,i0,i1,a,b =   1.7280E+06  7.1005E-01  3.4666E+01 -3.2100E-02 -5.0653E-02  2.6156E+02  0.0000E+00     1     2  1.6667E-01  8.3333E-01
time,fu0,fu1,fu =   1.7280E+06 -3.5633E-02 -1.4435E-02 -3.2100E-02  1.666666666666667E-01  8.333333333333334E-01
 cg2d: Sum(rhs),rhsMax =  -6.29156449161172E-13  7.14638844555284E+00
time,SST,SSS,fu,fv,Q,E-P,i0,i1,a,b =   1.7712E+06  6.8521E-01  3.4661E+01 -3.1747E-02 -4.9993E-02  2.6113E+02  0.0000E+00     1     2  1.8333E-01  8.1667E-01
time,fu0,fu1,fu =   1.7712E+06 -3.5633E-02 -1.4435E-02 -3.1747E-02  1.833333333333333E-01  8.166666666666667E-01
 cg2d: Sum(rhs),rhsMax =  -5.65082702852493E-13  7.16032444197673E+00
time,SST,SSS,fu,fv,Q,E-P,i0,i1,a,b =   1.8144E+06  6.6037E-01  3.4656E+01 -3.1393E-02 -4.9332E-02  2.6071E+02  0.0000E+00     1     2  2.0000E-01  8.0000E-01
time,fu0,fu1,fu =   1.8144E+06 -3.5633E-02 -1.4435E-02 -3.1393E-02  2.000000000000000E-01  8.000000000000000E-01
 cg2d: Sum(rhs),rhsMax =  -6.89705237366667E-13  7.19604412881160E+00
time,SST,SSS,fu,fv,Q,E-P,i0,i1,a,b =   1.8576E+06  6.3553E-01  3.4651E+01 -3.1040E-02 -4.8672E-02  2.6029E+02  0.0000E+00     1     2  2.1667E-01  7.8333E-01
time,fu0,fu1,fu =   1.8576E+06 -3.5633E-02 -1.4435E-02 -3.1040E-02  2.166666666666667E-01  7.833333333333333E-01
 cg2d: Sum(rhs),rhsMax =  -2.34784414132605E-13  7.21623311596628E+00
time,SST,SSS,fu,fv,Q,E-P,i0,i1,a,b =   1.9008E+06  6.1069E-01  3.4646E+01 -3.0687E-02 -4.8012E-02  2.5987E+02  0.0000E+00     1     2  2.3333E-01  7.6667E-01
time,fu0,fu1,fu =   1.9008E+06 -3.5633E-02 -1.4435E-02 -3.0687E-02  2.333333333333333E-01  7.666666666666666E-01
 cg2d: Sum(rhs),rhsMax =  -5.69634617253456E-13  7.36407460534508E+00
time,SST,SSS,fu,fv,Q,E-P,i0,i1,a,b =   1.9440E+06  5.8585E-01  3.4641E+01 -3.0333E-02 -4.7351E-02  2.5945E+02  0.0000E+00     1     2  2.5000E-01  7.5000E-01
time,fu0,fu1,fu =   1.9440E+06 -3.5633E-02 -1.4435E-02 -3.0333E-02  2.500000000000000E-01  7.500000000000000E-01
 cg2d: Sum(rhs),rhsMax =  -1.55174484373077E-13  7.63412024103095E+00
time,SST,SSS,fu,fv,Q,E-P,i0,i1,a,b =   1.9872E+06  5.6102E-01  3.4636E+01 -2.9980E-02 -4.6691E-02  2.5903E+02  0.0000E+00     1     2  2.6667E-01  7.3333E-01
time,fu0,fu1,fu =   1.9872E+06 -3.5633E-02 -1.4435E-02 -2.9980E-02  2.666666666666667E-01  7.333333333333334E-01
 cg2d: Sum(rhs),rhsMax =   1.36349265211777E-14  7.83758000475891E+00
time,SST,SSS,fu,fv,Q,E-P,i0,i1,a,b =   2.0304E+06  5.3618E-01  3.4631E+01 -2.9627E-02 -4.6031E-02  2.5861E+02  0.0000E+00     1     2  2.8333E-01  7.1667E-01
time,fu0,fu1,fu =   2.0304E+06 -3.5633E-02 -1.4435E-02 -2.9627E-02  2.833333333333333E-01  7.166666666666667E-01
 cg2d: Sum(rhs),rhsMax =  -3.85816378845050E-13  7.97661680932737E+00
time,SST,SSS,fu,fv,Q,E-P,i0,i1,a,b =   2.0736E+06  5.1134E-01  3.4627E+01 -2.9273E-02 -4.5370E-02  2.5818E+02  0.0000E+00     1     2  3.0000E-01  7.0000E-01
time,fu0,fu1,fu =   2.0736E+06 -3.5633E-02 -1.4435E-02 -2.9273E-02  3.000000000000000E-01  7.000000000000000E-01
 cg2d: Sum(rhs),rhsMax =   3.86218834691476E-14  8.05769560441829E+00
time,SST,SSS,fu,fv,Q,E-P,i0,i1,a,b =   2.1168E+06  4.8650E-01  3.4622E+01 -2.8920E-02 -4.4710E-02  2.5776E+02  0.0000E+00     1     2  3.1667E-01  6.8333E-01
time,fu0,fu1,fu =   2.1168E+06 -3.5633E-02 -1.4435E-02 -2.8920E-02  3.166666666666667E-01  6.833333333333333E-01
 cg2d: Sum(rhs),rhsMax =   3.03909675203329E-13  8.09041726285558E+00
time,SST,SSS,fu,fv,Q,E-P,i0,i1,a,b =   2.1600E+06  4.6166E-01  3.4617E+01 -2.8567E-02 -4.4050E-02  2.5734E+02  0.0000E+00     1     2  3.3333E-01  6.6667E-01
time,fu0,fu1,fu =   2.1600E+06 -3.5633E-02 -1.4435E-02 -2.8567E-02  3.333333333333333E-01  6.666666666666667E-01
 cg2d: Sum(rhs),rhsMax =   1.32713284806130E-13  8.08616467736041E+00
time,SST,SSS,fu,fv,Q,E-P,i0,i1,a,b =   2.2032E+06  4.3683E-01  3.4612E+01 -2.8214E-02 -4.3389E-02  2.5692E+02  0.0000E+00     1     2  3.5000E-01  6.5000E-01
time,fu0,fu1,fu =   2.2032E+06 -3.5633E-02 -1.4435E-02 -2.8214E-02  3.500000000000000E-01  6.500000000000000E-01
 cg2d: Sum(rhs),rhsMax =   3.63570284989123E-13  8.05674135563685E+00
time,SST,SSS,fu,fv,Q,E-P,i0,i1,a,b =   2.2464E+06  4.1199E-01  3.4607E+01 -2.7860E-02 -4.2729E-02  2.5650E+02  0.0000E+00     1     2  3.6667E-01  6.3333E-01
time,fu0,fu1,fu =   2.2464E+06 -3.5633E-02 -1.4435E-02 -2.7860E-02  3.666666666666666E-01  6.333333333333333E-01
 cg2d: Sum(rhs),rhsMax =  -8.37940827835837E-14  8.18299935291959E+00
time,SST,SSS,fu,fv,Q,E-P,i0,i1,a,b =   2.2896E+06  3.8715E-01  3.4602E+01 -2.7507E-02 -4.2069E-02  2.5608E+02  0.0000E+00     1     2  3.8333E-01  6.1667E-01
time,fu0,fu1,fu =   2.2896E+06 -3.5633E-02 -1.4435E-02 -2.7507E-02  3.833333333333334E-01  6.166666666666667E-01
 cg2d: Sum(rhs),rhsMax =   3.18606252491804E-13  9.40876998363914E+00
time,SST,SSS,fu,fv,Q,E-P,i0,i1,a,b =   2.3328E+06  3.6231E-01  3.4597E+01 -2.7154E-02 -4.1408E-02  2.5565E+02  0.0000E+00     1     2  4.0000E-01  6.0000E-01
time,fu0,fu1,fu =   2.3328E+06 -3.5633E-02 -1.4435E-02 -2.7154E-02  4.000000000000000E-01  6.000000000000000E-01
 cg2d: Sum(rhs),rhsMax =   6.34860219950184E-13  1.05293283679571E+01
time,SST,SSS,fu,fv,Q,E-P,i0,i1,a,b =   2.3760E+06  3.3747E-01  3.4592E+01 -2.6800E-02 -4.0748E-02  2.5523E+02  0.0000E+00     1     2  4.1667E-01  5.8333E-01
time,fu0,fu1,fu =   2.3760E+06 -3.5633E-02 -1.4435E-02 -2.6800E-02  4.166666666666667E-01  5.833333333333333E-01
 cg2d: Sum(rhs),rhsMax =   1.31566285643814E-12  1.15144716930722E+01
time,SST,SSS,fu,fv,Q,E-P,i0,i1,a,b =   2.4192E+06  3.1264E-01  3.4587E+01 -2.6447E-02 -4.0088E-02  2.5481E+02  0.0000E+00     1     2  4.3333E-01  5.6667E-01
time,fu0,fu1,fu =   2.4192E+06 -3.5633E-02 -1.4435E-02 -2.6447E-02  4.333333333333333E-01  5.666666666666667E-01
 cg2d: Sum(rhs),rhsMax =   1.37593408888748E-12  1.23395348365961E+01
time,SST,SSS,fu,fv,Q,E-P,i0,i1,a,b =   2.4624E+06  2.8780E-01  3.4582E+01 -2.6094E-02 -3.9427E-02  2.5439E+02  0.0000E+00     1     2  4.5000E-01  5.5000E-01
time,fu0,fu1,fu =   2.4624E+06 -3.5633E-02 -1.4435E-02 -2.6094E-02  4.500000000000000E-01  5.500000000000000E-01
 cg2d: Sum(rhs),rhsMax =   1.54065649127233E-12  1.29859659583269E+01
time,SST,SSS,fu,fv,Q,E-P,i0,i1,a,b =   2.5056E+06  2.6296E-01  3.4578E+01 -2.5740E-02 -3.8767E-02  2.5397E+02  0.0000E+00     1     2  4.6667E-01  5.3333E-01
time,fu0,fu1,fu =   2.5056E+06 -3.5633E-02 -1.4435E-02 -2.5740E-02  4.666666666666667E-01  5.333333333333333E-01
 cg2d: Sum(rhs),rhsMax =   1.85711168665392E-12  1.34416466565062E+01
time,SST,SSS,fu,fv,Q,E-P,i0,i1,a,b =   2.5488E+06  2.3812E-01  3.4573E+01 -2.5387E-02 -3.8106E-02  2.5355E+02  0.0000E+00     1     2  4.8333E-01  5.1667E-01
time,fu0,fu1,fu =   2.5488E+06 -3.5633E-02 -1.4435E-02 -2.5387E-02  4.833333333333333E-01  5.166666666666666E-01
 cg2d: Sum(rhs),rhsMax =   2.24852081398552E-12  1.37009644382626E+01
time,SST,SSS,fu,fv,Q,E-P,i0,i1,a,b =   2.5920E+06  2.1328E-01  3.4568E+01 -2.5034E-02 -3.7446E-02  2.5313E+02  0.0000E+00     1     2  5.0000E-01  5.0000E-01
time,fu0,fu1,fu =   2.5920E+06 -3.5633E-02 -1.4435E-02 -2.5034E-02  5.000000000000000E-01  5.000000000000000E-01
 cg2d: Sum(rhs),rhsMax =   2.82331102940958E-12  1.37646542198198E+01
time,SST,SSS,fu,fv,Q,E-P,i0,i1,a,b =   2.6352E+06  1.8845E-01  3.4563E+01 -2.4681E-02 -3.6786E-02  2.5270E+02  0.0000E+00     1     2  5.1667E-01  4.8333E-01
time,fu0,fu1,fu =   2.6352E+06 -3.5633E-02 -1.4435E-02 -2.4681E-02  5.166666666666667E-01  4.833333333333333E-01
 cg2d: Sum(rhs),rhsMax =   2.46522940949845E-12  1.36394326347117E+01
time,SST,SSS,fu,fv,Q,E-P,i0,i1,a,b =   2.6784E+06  1.6361E-01  3.4558E+01 -2.4327E-02 -3.6125E-02  2.5228E+02  0.0000E+00     1     2  5.3333E-01  4.6667E-01
time,fu0,fu1,fu =   2.6784E+06 -3.5633E-02 -1.4435E-02 -2.4327E-02  5.333333333333333E-01  4.666666666666667E-01
 cg2d: Sum(rhs),rhsMax =   2.63640498321394E-12  1.33374541492806E+01
time,SST,SSS,fu,fv,Q,E-P,i0,i1,a,b =   2.7216E+06  1.3877E-01  3.4553E+01 -2.3974E-02 -3.5465E-02  2.5186E+02  0.0000E+00     1     2  5.5000E-01  4.5000E-01
time,fu0,fu1,fu =   2.7216E+06 -3.5633E-02 -1.4435E-02 -2.3974E-02  5.500000000000000E-01  4.500000000000000E-01
 cg2d: Sum(rhs),rhsMax =   2.92319640715633E-12  1.28756215131616E+01
time,SST,SSS,fu,fv,Q,E-P,i0,i1,a,b =   2.7648E+06  1.1393E-01  3.4548E+01 -2.3621E-02 -3.4805E-02  2.5144E+02  0.0000E+00     1     2  5.6667E-01  4.3333E-01
time,fu0,fu1,fu =   2.7648E+06 -3.5633E-02 -1.4435E-02 -2.3621E-02  5.666666666666667E-01  4.333333333333333E-01
 cg2d: Sum(rhs),rhsMax =   3.44275996599919E-12  1.22747850940698E+01
time,SST,SSS,fu,fv,Q,E-P,i0,i1,a,b =   2.8080E+06  8.9094E-02  3.4543E+01 -2.3267E-02 -3.4144E-02  2.5102E+02  0.0000E+00     1     2  5.8333E-01  4.1667E-01
time,fu0,fu1,fu =   2.8080E+06 -3.5633E-02 -1.4435E-02 -2.3267E-02  5.833333333333334E-01  4.166666666666666E-01
 cg2d: Sum(rhs),rhsMax =   3.98293203973665E-12  1.15588663470787E+01
time,SST,SSS,fu,fv,Q,E-P,i0,i1,a,b =   2.8512E+06  6.4256E-02  3.4538E+01 -2.2914E-02 -3.3484E-02  2.5060E+02  0.0000E+00     1     2  6.0000E-01  4.0000E-01
time,fu0,fu1,fu =   2.8512E+06 -3.5633E-02 -1.4435E-02 -2.2914E-02  6.000000000000000E-01  4.000000000000000E-01
 cg2d: Sum(rhs),rhsMax =   4.00560140612072E-12  1.07539402143608E+01
time,SST,SSS,fu,fv,Q,E-P,i0,i1,a,b =   2.8944E+06  3.9418E-02  3.4534E+01 -2.2561E-02 -3.2824E-02  2.5018E+02  0.0000E+00     1     2  6.1667E-01  3.8333E-01
time,fu0,fu1,fu =   2.8944E+06 -3.5633E-02 -1.4435E-02 -2.2561E-02  6.166666666666667E-01  3.833333333333333E-01
 cg2d: Sum(rhs),rhsMax =   3.57047724719450E-12  9.88730978154407E+00
time,SST,SSS,fu,fv,Q,E-P,i0,i1,a,b =   2.9376E+06  1.4580E-02  3.4529E+01 -2.2207E-02 -3.2163E-02  2.4975E+02  0.0000E+00     1     2  6.3333E-01  3.6667E-01
time,fu0,fu1,fu =   2.9376E+06 -3.5633E-02 -1.4435E-02 -2.2207E-02  6.333333333333333E-01  3.666666666666667E-01
 cg2d: Sum(rhs),rhsMax =   4.07406053337667E-12  8.98660414994470E+00
time,SST,SSS,fu,fv,Q,E-P,i0,i1,a,b =   2.9808E+06 -1.0258E-02  3.4524E+01 -2.1854E-02 -3.1503E-02  2.4933E+02  0.0000E+00     1     2  6.5000E-01  3.5000E-01
time,fu0,fu1,fu =   2.9808E+06 -3.5633E-02 -1.4435E-02 -2.1854E-02  6.500000000000000E-01  3.500000000000000E-01
 cg2d: Sum(rhs),rhsMax =   3.30098448575455E-12  8.07892732947622E+00
time,SST,SSS,fu,fv,Q,E-P,i0,i1,a,b =   3.0240E+06 -3.5096E-02  3.4519E+01 -2.1501E-02 -3.0843E-02  2.4891E+02  0.0000E+00     1     2  6.6667E-01  3.3333E-01
time,fu0,fu1,fu =   3.0240E+06 -3.5633E-02 -1.4435E-02 -2.1501E-02  6.666666666666666E-01  3.333333333333334E-01
 cg2d: Sum(rhs),rhsMax =   3.30829807992927E-12  7.98205142419796E+00
time,SST,SSS,fu,fv,Q,E-P,i0,i1,a,b =   3.0672E+06 -5.9934E-02  3.4514E+01 -2.1147E-02 -3.0182E-02  2.4849E+02  0.0000E+00     1     2  6.8333E-01  3.1667E-01
time,fu0,fu1,fu =   3.0672E+06 -3.5633E-02 -1.4435E-02 -2.1147E-02  6.833333333333333E-01  3.166666666666667E-01
 cg2d: Sum(rhs),rhsMax =   3.06388248105804E-12  8.00388445176893E+00
time,SST,SSS,fu,fv,Q,E-P,i0,i1,a,b =   3.1104E+06 -8.4772E-02  3.4509E+01 -2.0794E-02 -2.9522E-02  2.4807E+02  0.0000E+00     1     2  7.0000E-01  3.0000E-01
time,fu0,fu1,fu =   3.1104E+06 -3.5633E-02 -1.4435E-02 -2.0794E-02  7.000000000000000E-01  3.000000000000000E-01
 cg2d: Sum(rhs),rhsMax =   3.45710959859247E-12  8.02911816390620E+00
time,SST,SSS,fu,fv,Q,E-P,i0,i1,a,b =   3.1536E+06 -1.0961E-01  3.4504E+01 -2.0441E-02 -2.8862E-02  2.4765E+02  0.0000E+00     1     2  7.1667E-01  2.8333E-01
time,fu0,fu1,fu =   3.1536E+06 -3.5633E-02 -1.4435E-02 -2.0441E-02  7.166666666666667E-01  2.833333333333333E-01
 cg2d: Sum(rhs),rhsMax =   2.84879064782473E-12  8.49105135620084E+00
time,SST,SSS,fu,fv,Q,E-P,i0,i1,a,b =   3.1968E+06 -1.3445E-01  3.4499E+01 -2.0088E-02 -2.8201E-02  2.4722E+02  0.0000E+00     1     2  7.3333E-01  2.6667E-01
time,fu0,fu1,fu =   3.1968E+06 -3.5633E-02 -1.4435E-02 -2.0088E-02  7.333333333333333E-01  2.666666666666667E-01
 cg2d: Sum(rhs),rhsMax =   2.63845195691559E-12  8.90375479954424E+00
time,SST,SSS,fu,fv,Q,E-P,i0,i1,a,b =   3.2400E+06 -1.5929E-01  3.4494E+01 -1.9734E-02 -2.7541E-02  2.4680E+02  0.0000E+00     1     2  7.5000E-01  2.5000E-01
time,fu0,fu1,fu =   3.2400E+06 -3.5633E-02 -1.4435E-02 -1.9734E-02  7.500000000000000E-01  2.500000000000000E-01
 cg2d: Sum(rhs),rhsMax =   2.44720216313610E-12  9.21995790950385E+00
time,SST,SSS,fu,fv,Q,E-P,i0,i1,a,b =   3.2832E+06 -1.8412E-01  3.4490E+01 -1.9381E-02 -2.6880E-02  2.4638E+02  0.0000E+00     1     2  7.6667E-01  2.3333E-01
time,fu0,fu1,fu =   3.2832E+06 -3.5633E-02 -1.4435E-02 -1.9381E-02  7.666666666666667E-01  2.333333333333333E-01
 cg2d: Sum(rhs),rhsMax =   2.53246729142731E-12  9.43408931072089E+00
time,SST,SSS,fu,fv,Q,E-P,i0,i1,a,b =   3.3264E+06 -2.0896E-01  3.4485E+01 -1.9028E-02 -2.6220E-02  2.4596E+02  0.0000E+00     1     2  7.8333E-01  2.1667E-01
time,fu0,fu1,fu =   3.3264E+06 -3.5633E-02 -1.4435E-02 -1.9028E-02  7.833333333333333E-01  2.166666666666667E-01
 cg2d: Sum(rhs),rhsMax =   2.36732161651432E-12  9.54305710353397E+00
time,SST,SSS,fu,fv,Q,E-P,i0,i1,a,b =   3.3696E+06 -2.3380E-01  3.4480E+01 -1.8674E-02 -2.5560E-02  2.4554E+02  0.0000E+00     1     2  8.0000E-01  2.0000E-01
time,fu0,fu1,fu =   3.3696E+06 -3.5633E-02 -1.4435E-02 -1.8674E-02  8.000000000000000E-01  2.000000000000000E-01
 cg2d: Sum(rhs),rhsMax =   2.49069515012579E-12  9.54626017732883E+00
time,SST,SSS,fu,fv,Q,E-P,i0,i1,a,b =   3.4128E+06 -2.5864E-01  3.4475E+01 -1.8321E-02 -2.4899E-02  2.4512E+02  0.0000E+00     1     2  8.1667E-01  1.8333E-01
time,fu0,fu1,fu =   3.4128E+06 -3.5633E-02 -1.4435E-02 -1.8321E-02  8.166666666666667E-01  1.833333333333333E-01
 cg2d: Sum(rhs),rhsMax =   2.65545224698016E-12  9.44553408889320E+00
time,SST,SSS,fu,fv,Q,E-P,i0,i1,a,b =   3.4560E+06 -2.8348E-01  3.4470E+01 -1.7968E-02 -2.4239E-02  2.4470E+02  0.0000E+00     1     2  8.3333E-01  1.6667E-01
time,fu0,fu1,fu =   3.4560E+06 -3.5633E-02 -1.4435E-02 -1.7968E-02  8.333333333333334E-01  1.666666666666666E-01
 cg2d: Sum(rhs),rhsMax =   2.28436020099920E-12  9.24503795757150E+00
time,SST,SSS,fu,fv,Q,E-P,i0,i1,a,b =   3.4992E+06 -3.0831E-01  3.4465E+01 -1.7614E-02 -2.3579E-02  2.4427E+02  0.0000E+00     1     2  8.5000E-01  1.5000E-01
time,fu0,fu1,fu =   3.4992E+06 -3.5633E-02 -1.4435E-02 -1.7614E-02  8.500000000000000E-01  1.500000000000000E-01
 cg2d: Sum(rhs),rhsMax =   2.92941365609423E-12  8.95109002624175E+00
time,SST,SSS,fu,fv,Q,E-P,i0,i1,a,b =   3.5424E+06 -3.3315E-01  3.4460E+01 -1.7261E-02 -2.2918E-02  2.4385E+02  0.0000E+00     1     2  8.6667E-01  1.3333E-01
time,fu0,fu1,fu =   3.5424E+06 -3.5633E-02 -1.4435E-02 -1.7261E-02  8.666666666666667E-01  1.333333333333333E-01
 cg2d: Sum(rhs),rhsMax =   3.46644934978713E-12  8.57196017883418E+00
time,SST,SSS,fu,fv,Q,E-P,i0,i1,a,b =   3.5856E+06 -3.5799E-01  3.4455E+01 -1.6908E-02 -2.2258E-02  2.4343E+02  0.0000E+00     1     2  8.8333E-01  1.1667E-01
time,fu0,fu1,fu =   3.5856E+06 -3.5633E-02 -1.4435E-02 -1.6908E-02  8.833333333333333E-01  1.166666666666667E-01
 cg2d: Sum(rhs),rhsMax =   3.49022200030191E-12  8.11762787244103E+00
time,SST,SSS,fu,fv,Q,E-P,i0,i1,a,b =   3.6288E+06 -3.8283E-01  3.4450E+01 -1.6555E-02 -2.1598E-02  2.4301E+02  0.0000E+00     1     2  9.0000E-01  1.0000E-01
time,fu0,fu1,fu =   3.6288E+06 -3.5633E-02 -1.4435E-02 -1.6555E-02  9.000000000000000E-01  9.999999999999998E-02
 cg2d: Sum(rhs),rhsMax =   3.01808578129226E-12  8.02199628931659E+00
time,SST,SSS,fu,fv,Q,E-P,i0,i1,a,b =   3.6720E+06 -4.0767E-01  3.4446E+01 -1.6201E-02 -2.0937E-02  2.4259E+02  0.0000E+00     1     2  9.1667E-01  8.3333E-02
time,fu0,fu1,fu =   3.6720E+06 -3.5633E-02 -1.4435E-02 -1.6201E-02  9.166666666666666E-01  8.333333333333337E-02
 cg2d: Sum(rhs),rhsMax =   3.08873759902184E-12  7.98965233513267E+00
time,SST,SSS,fu,fv,Q,E-P,i0,i1,a,b =   3.7152E+06 -4.3250E-01  3.4441E+01 -1.5848E-02 -2.0277E-02  2.4217E+02  0.0000E+00     1     2  9.3333E-01  6.6667E-02
time,fu0,fu1,fu =   3.7152E+06 -3.5633E-02 -1.4435E-02 -1.5848E-02  9.333333333333333E-01  6.666666666666665E-02
 cg2d: Sum(rhs),rhsMax =   4.26678137266379E-12  7.95826433875444E+00
time,SST,SSS,fu,fv,Q,E-P,i0,i1,a,b =   3.7584E+06 -4.5734E-01  3.4436E+01 -1.5495E-02 -1.9617E-02  2.4175E+02  0.0000E+00     1     2  9.5000E-01  5.0000E-02
time,fu0,fu1,fu =   3.7584E+06 -3.5633E-02 -1.4435E-02 -1.5495E-02  9.500000000000000E-01  5.000000000000004E-02
 cg2d: Sum(rhs),rhsMax =   4.70211369840712E-12  7.92999021446621E+00
time,SST,SSS,fu,fv,Q,E-P,i0,i1,a,b =   3.8016E+06 -4.8218E-01  3.4431E+01 -1.5141E-02 -1.8956E-02  2.4132E+02  0.0000E+00     1     2  9.6667E-01  3.3333E-02
time,fu0,fu1,fu =   3.8016E+06 -3.5633E-02 -1.4435E-02 -1.5141E-02  9.666666666666667E-01  3.333333333333333E-02
 cg2d: Sum(rhs),rhsMax =   4.29385693667683E-12  7.90697482258311E+00
time,SST,SSS,fu,fv,Q,E-P,i0,i1,a,b =   3.8448E+06 -5.0702E-01  3.4426E+01 -1.4788E-02 -1.8296E-02  2.4090E+02  0.0000E+00     1     2  9.8333E-01  1.6667E-02
time,fu0,fu1,fu =   3.8448E+06 -3.5633E-02 -1.4435E-02 -1.4788E-02  9.833333333333333E-01  1.666666666666672E-02
 cg2d: Sum(rhs),rhsMax =   4.28604374214103E-12  7.89125107003982E+00
S/R EXTERNAL_FIELDS_LOAD: Reading new data:    2    3        90  3.888000000000E+06
(PID.TID 0000.0001)  MDSREADFIELD: opening global file: trenberth_taux.bin
(PID.TID 0000.0001)  MDSREADFIELD: opening global file: trenberth_taux.bin
(PID.TID 0000.0001)  MDSREADFIELD: opening global file: trenberth_tauy.bin
(PID.TID 0000.0001)  MDSREADFIELD: opening global file: trenberth_tauy.bin
(PID.TID 0000.0001)  MDSREADFIELD: opening global file: ncep_qnet.bin
(PID.TID 0000.0001)  MDSREADFIELD: opening global file: ncep_qnet.bin
(PID.TID 0000.0001)  MDSREADFIELD: opening global file: lev_sst.bin
(PID.TID 0000.0001)  MDSREADFIELD: opening global file: lev_sst.bin
(PID.TID 0000.0001)  MDSREADFIELD: opening global file: lev_sss.bin
(PID.TID 0000.0001)  MDSREADFIELD: opening global file: lev_sss.bin
time,SST,SSS,fu,fv,Q,E-P,i0,i1,a,b =   3.8880E+06 -5.3186E-01  3.4421E+01 -1.4435E-02 -1.7636E-02  2.4048E+02  0.0000E+00     2     3  0.0000E+00  1.0000E+00
time,fu0,fu1,fu =   3.8880E+06 -1.4435E-02 -2.7199E-02 -1.4435E-02  0.000000000000000E+00  1.000000000000000E+00
 cg2d: Sum(rhs),rhsMax =   4.13939715837586E-12  7.88464110316608E+00
time,SST,SSS,fu,fv,Q,E-P,i0,i1,a,b =   3.9312E+06 -5.2606E-01  3.4424E+01 -1.4647E-02 -1.7351E-02  2.4006E+02  0.0000E+00     2     3  1.6667E-02  9.8333E-01
time,fu0,fu1,fu =   3.9312E+06 -1.4435E-02 -2.7199E-02 -1.4647E-02  1.666666666666667E-02  9.833333333333333E-01
 cg2d: Sum(rhs),rhsMax =   4.61577998045470E-12  8.18557526327124E+00
time,SST,SSS,fu,fv,Q,E-P,i0,i1,a,b =   3.9744E+06 -5.2026E-01  3.4426E+01 -1.4860E-02 -1.7067E-02  2.3964E+02  0.0000E+00     2     3  3.3333E-02  9.6667E-01
time,fu0,fu1,fu =   3.9744E+06 -1.4435E-02 -2.7199E-02 -1.4860E-02  3.333333333333333E-02  9.666666666666667E-01
 cg2d: Sum(rhs),rhsMax =   4.06050193468843E-12  8.65937296710671E+00
time,SST,SSS,fu,fv,Q,E-P,i0,i1,a,b =   4.0176E+06 -5.1446E-01  3.4429E+01 -1.5073E-02 -1.6783E-02  2.3923E+02  0.0000E+00     2     3  5.0000E-02  9.5000E-01
time,fu0,fu1,fu =   4.0176E+06 -1.4435E-02 -2.7199E-02 -1.5073E-02  5.000000000000000E-02  9.500000000000000E-01
 cg2d: Sum(rhs),rhsMax =   3.65347335717914E-12  9.08149157860150E+00
time,SST,SSS,fu,fv,Q,E-P,i0,i1,a,b =   4.0608E+06 -5.0866E-01  3.4432E+01 -1.5286E-02 -1.6498E-02  2.3881E+02  0.0000E+00     2     3  6.6667E-02  9.3333E-01
time,fu0,fu1,fu =   4.0608E+06 -1.4435E-02 -2.7199E-02 -1.5286E-02  6.666666666666667E-02  9.333333333333333E-01
 cg2d: Sum(rhs),rhsMax =   3.62445490287300E-12  9.44424360417928E+00
time,SST,SSS,fu,fv,Q,E-P,i0,i1,a,b =   4.1040E+06 -5.0286E-01  3.4434E+01 -1.5498E-02 -1.6214E-02  2.3839E+02  0.0000E+00     2     3  8.3333E-02  9.1667E-01
time,fu0,fu1,fu =   4.1040E+06 -1.4435E-02 -2.7199E-02 -1.5498E-02  8.333333333333333E-02  9.166666666666666E-01
 cg2d: Sum(rhs),rhsMax =   3.06649844405982E-12  9.74175896285218E+00
time,SST,SSS,fu,fv,Q,E-P,i0,i1,a,b =   4.1472E+06 -4.9706E-01  3.4437E+01 -1.5711E-02 -1.5930E-02  2.3797E+02  0.0000E+00     2     3  1.0000E-01  9.0000E-01
time,fu0,fu1,fu =   4.1472E+06 -1.4435E-02 -2.7199E-02 -1.5711E-02  1.000000000000000E-01  9.000000000000000E-01
 cg2d: Sum(rhs),rhsMax =   3.20752452376283E-12  9.97004037002512E+00
time,SST,SSS,fu,fv,Q,E-P,i0,i1,a,b =   4.1904E+06 -4.9126E-01  3.4440E+01 -1.5924E-02 -1.5646E-02  2.3755E+02  0.0000E+00     2     3  1.1667E-01  8.8333E-01
time,fu0,fu1,fu =   4.1904E+06 -1.4435E-02 -2.7199E-02 -1.5924E-02  1.166666666666667E-01  8.833333333333333E-01
 cg2d: Sum(rhs),rhsMax =   2.66547894867131E-12  1.01269746540640E+01
time,SST,SSS,fu,fv,Q,E-P,i0,i1,a,b =   4.2336E+06 -4.8546E-01  3.4442E+01 -1.6137E-02 -1.5361E-02  2.3714E+02  0.0000E+00     2     3  1.3333E-01  8.6667E-01
time,fu0,fu1,fu =   4.2336E+06 -1.4435E-02 -2.7199E-02 -1.6137E-02  1.333333333333333E-01  8.666666666666667E-01
 cg2d: Sum(rhs),rhsMax =   2.90496793287076E-12  1.02123009091251E+01
time,SST,SSS,fu,fv,Q,E-P,i0,i1,a,b =   4.2768E+06 -4.7966E-01  3.4445E+01 -1.6349E-02 -1.5077E-02  2.3672E+02  0.0000E+00     2     3  1.5000E-01  8.5000E-01
time,fu0,fu1,fu =   4.2768E+06 -1.4435E-02 -2.7199E-02 -1.6349E-02  1.500000000000000E-01  8.500000000000000E-01
 cg2d: Sum(rhs),rhsMax =   2.28589369655197E-12  1.02275371039027E+01
time,SST,SSS,fu,fv,Q,E-P,i0,i1,a,b =   4.3200E+06 -4.7386E-01  3.4447E+01 -1.6562E-02 -1.4793E-02  2.3630E+02  0.0000E+00     2     3  1.6667E-01  8.3333E-01
time,fu0,fu1,fu =   4.3200E+06 -1.4435E-02 -2.7199E-02 -1.6562E-02  1.666666666666667E-01  8.333333333333334E-01
 cg2d: Sum(rhs),rhsMax =   2.34520042274866E-12  1.01758675323395E+01
time,SST,SSS,fu,fv,Q,E-P,i0,i1,a,b =   4.3632E+06 -4.6807E-01  3.4450E+01 -1.6775E-02 -1.4508E-02  2.3588E+02  0.0000E+00     2     3  1.8333E-01  8.1667E-01
time,fu0,fu1,fu =   4.3632E+06 -1.4435E-02 -2.7199E-02 -1.6775E-02  1.833333333333333E-01  8.166666666666667E-01
 cg2d: Sum(rhs),rhsMax =   2.74919670362195E-12  1.00619942750509E+01
time,SST,SSS,fu,fv,Q,E-P,i0,i1,a,b =   4.4064E+06 -4.6227E-01  3.4453E+01 -1.6988E-02 -1.4224E-02  2.3546E+02  0.0000E+00     2     3  2.0000E-01  8.0000E-01
time,fu0,fu1,fu =   4.4064E+06 -1.4435E-02 -2.7199E-02 -1.6988E-02  2.000000000000000E-01  8.000000000000000E-01
 cg2d: Sum(rhs),rhsMax =   2.32912994446721E-12  9.89195661632642E+00
time,SST,SSS,fu,fv,Q,E-P,i0,i1,a,b =   4.4496E+06 -4.5647E-01  3.4455E+01 -1.7200E-02 -1.3940E-02  2.3505E+02  0.0000E+00     2     3  2.1667E-01  7.8333E-01
time,fu0,fu1,fu =   4.4496E+06 -1.4435E-02 -2.7199E-02 -1.7200E-02  2.166666666666667E-01  7.833333333333333E-01
 cg2d: Sum(rhs),rhsMax =   2.39007424962523E-12  9.67292310854132E+00
time,SST,SSS,fu,fv,Q,E-P,i0,i1,a,b =   4.4928E+06 -4.5067E-01  3.4458E+01 -1.7413E-02 -1.3655E-02  2.3463E+02  0.0000E+00     2     3  2.3333E-01  7.6667E-01
time,fu0,fu1,fu =   4.4928E+06 -1.4435E-02 -2.7199E-02 -1.7413E-02  2.333333333333333E-01  7.666666666666666E-01
 cg2d: Sum(rhs),rhsMax =   2.39485514752502E-12  9.41296166664622E+00
time,SST,SSS,fu,fv,Q,E-P,i0,i1,a,b =   4.5360E+06 -4.4487E-01  3.4461E+01 -1.7626E-02 -1.3371E-02  2.3421E+02  0.0000E+00     2     3  2.5000E-01  7.5000E-01
time,fu0,fu1,fu =   4.5360E+06 -1.4435E-02 -2.7199E-02 -1.7626E-02  2.500000000000000E-01  7.500000000000000E-01
 cg2d: Sum(rhs),rhsMax =   2.97679242367010E-12  9.12079367632691E+00
time,SST,SSS,fu,fv,Q,E-P,i0,i1,a,b =   4.5792E+06 -4.3907E-01  3.4463E+01 -1.7838E-02 -1.3087E-02  2.3379E+02  0.0000E+00     2     3  2.6667E-01  7.3333E-01
time,fu0,fu1,fu =   4.5792E+06 -1.4435E-02 -2.7199E-02 -1.7838E-02  2.666666666666667E-01  7.333333333333334E-01
 cg2d: Sum(rhs),rhsMax =   1.88207088802628E-12  8.86256549507579E+00
time,SST,SSS,fu,fv,Q,E-P,i0,i1,a,b =   4.6224E+06 -4.3327E-01  3.4466E+01 -1.8051E-02 -1.2803E-02  2.3337E+02  0.0000E+00     2     3  2.8333E-01  7.1667E-01
time,fu0,fu1,fu =   4.6224E+06 -1.4435E-02 -2.7199E-02 -1.8051E-02  2.833333333333333E-01  7.166666666666667E-01
 cg2d: Sum(rhs),rhsMax =   2.10554490509551E-12  8.89641380478221E+00
time,SST,SSS,fu,fv,Q,E-P,i0,i1,a,b =   4.6656E+06 -4.2747E-01  3.4469E+01 -1.8264E-02 -1.2518E-02  2.3296E+02  0.0000E+00     2     3  3.0000E-01  7.0000E-01
time,fu0,fu1,fu =   4.6656E+06 -1.4435E-02 -2.7199E-02 -1.8264E-02  3.000000000000000E-01  7.000000000000000E-01
 cg2d: Sum(rhs),rhsMax =   2.86456969256221E-12  8.91497214553754E+00
time,SST,SSS,fu,fv,Q,E-P,i0,i1,a,b =   4.7088E+06 -4.2167E-01  3.4471E+01 -1.8477E-02 -1.2234E-02  2.3254E+02  0.0000E+00     2     3  3.1667E-01  6.8333E-01
time,fu0,fu1,fu =   4.7088E+06 -1.4435E-02 -2.7199E-02 -1.8477E-02  3.166666666666667E-01  6.833333333333333E-01
 cg2d: Sum(rhs),rhsMax =   2.73716466159257E-12  8.91793956887940E+00
time,SST,SSS,fu,fv,Q,E-P,i0,i1,a,b =   4.7520E+06 -4.1587E-01  3.4474E+01 -1.8689E-02 -1.1950E-02  2.3212E+02  0.0000E+00     2     3  3.3333E-01  6.6667E-01
time,fu0,fu1,fu =   4.7520E+06 -1.4435E-02 -2.7199E-02 -1.8689E-02  3.333333333333333E-01  6.666666666666667E-01
 cg2d: Sum(rhs),rhsMax =   2.51008935858721E-12  8.90561080252272E+00
time,SST,SSS,fu,fv,Q,E-P,i0,i1,a,b =   4.7952E+06 -4.1007E-01  3.4476E+01 -1.8902E-02 -1.1665E-02  2.3170E+02  0.0000E+00     2     3  3.5000E-01  6.5000E-01
time,fu0,fu1,fu =   4.7952E+06 -1.4435E-02 -2.7199E-02 -1.8902E-02  3.500000000000000E-01  6.500000000000000E-01
 cg2d: Sum(rhs),rhsMax =   2.73737976730359E-12  8.87885333266216E+00
time,SST,SSS,fu,fv,Q,E-P,i0,i1,a,b =   4.8384E+06 -4.0427E-01  3.4479E+01 -1.9115E-02 -1.1381E-02  2.3128E+02  0.0000E+00     2     3  3.6667E-01  6.3333E-01
time,fu0,fu1,fu =   4.8384E+06 -1.4435E-02 -2.7199E-02 -1.9115E-02  3.666666666666666E-01  6.333333333333333E-01
 cg2d: Sum(rhs),rhsMax =   3.23206045260704E-12  8.83905893545819E+00
time,SST,SSS,fu,fv,Q,E-P,i0,i1,a,b =   4.8816E+06 -3.9848E-01  3.4482E+01 -1.9328E-02 -1.1097E-02  2.3087E+02  0.0000E+00     2     3  3.8333E-01  6.1667E-01
time,fu0,fu1,fu =   4.8816E+06 -1.4435E-02 -2.7199E-02 -1.9328E-02  3.833333333333334E-01  6.166666666666667E-01
 cg2d: Sum(rhs),rhsMax =   2.55098026036293E-12  8.78807243326821E+00
time,SST,SSS,fu,fv,Q,E-P,i0,i1,a,b =   4.9248E+06 -3.9268E-01  3.4484E+01 -1.9540E-02 -1.0813E-02  2.3045E+02  0.0000E+00     2     3  4.0000E-01  6.0000E-01
time,fu0,fu1,fu =   4.9248E+06 -1.4435E-02 -2.7199E-02 -1.9540E-02  4.000000000000000E-01  6.000000000000000E-01
 cg2d: Sum(rhs),rhsMax =   1.87269644236210E-12  8.72810161224464E+00
time,SST,SSS,fu,fv,Q,E-P,i0,i1,a,b =   4.9680E+06 -3.8688E-01  3.4487E+01 -1.9753E-02 -1.0528E-02  2.3003E+02  0.0000E+00     2     3  4.1667E-01  5.8333E-01
time,fu0,fu1,fu =   4.9680E+06 -1.4435E-02 -2.7199E-02 -1.9753E-02  4.166666666666667E-01  5.833333333333333E-01
 cg2d: Sum(rhs),rhsMax =   2.69138183961459E-12  8.66161329307783E+00
time,SST,SSS,fu,fv,Q,E-P,i0,i1,a,b =   5.0112E+06 -3.8108E-01  3.4490E+01 -1.9966E-02 -1.0244E-02  2.2961E+02  0.0000E+00     2     3  4.3333E-01  5.6667E-01
time,fu0,fu1,fu =   5.0112E+06 -1.4435E-02 -2.7199E-02 -1.9966E-02  4.333333333333333E-01  5.666666666666667E-01
 cg2d: Sum(rhs),rhsMax =   1.62536650805123E-12  8.59122120043563E+00
time,SST,SSS,fu,fv,Q,E-P,i0,i1,a,b =   5.0544E+06 -3.7528E-01  3.4492E+01 -2.0179E-02 -9.9597E-03  2.2919E+02  0.0000E+00     2     3  4.5000E-01  5.5000E-01
time,fu0,fu1,fu =   5.0544E+06 -1.4435E-02 -2.7199E-02 -2.0179E-02  4.500000000000000E-01  5.500000000000000E-01
 cg2d: Sum(rhs),rhsMax =   2.43483011530543E-12  8.77527694545009E+00
time,SST,SSS,fu,fv,Q,E-P,i0,i1,a,b =   5.0976E+06 -3.6948E-01  3.4495E+01 -2.0391E-02 -9.6754E-03  2.2877E+02  0.0000E+00     2     3  4.6667E-01  5.3333E-01
time,fu0,fu1,fu =   5.0976E+06 -1.4435E-02 -2.7199E-02 -2.0391E-02  4.666666666666667E-01  5.333333333333333E-01
 cg2d: Sum(rhs),rhsMax =   1.86670123802912E-12  9.00166248672302E+00
time,SST,SSS,fu,fv,Q,E-P,i0,i1,a,b =   5.1408E+06 -3.6368E-01  3.4497E+01 -2.0604E-02 -9.3911E-03  2.2836E+02  0.0000E+00     2     3  4.8333E-01  5.1667E-01
time,fu0,fu1,fu =   5.1408E+06 -1.4435E-02 -2.7199E-02 -2.0604E-02  4.833333333333333E-01  5.166666666666666E-01
 cg2d: Sum(rhs),rhsMax =   1.96644089900389E-12  9.15305724696936E+00
 --> objf_test(bi,bj)   =  0.000000000000000E+00
 --> objf_tracer(bi,bj) =  0.000000000000000E+00
 --> objf_atl(bi,bj)    = -0.114865701967732E+00
  local fc = -0.114865701967732E+00
 global fc = -0.114865701967732E+00
(PID.TID 0000.0001)  MDSREADFIELD: opening file: xx_theta.0000000000.001.001.data
 grad-res -------------------------------
 grad-res     0    1   43    2    1   -.114865705E+00 -.114865709E+00 -.114865702E+00
 grad-res     0    1    1    1 2315   -.326970089E-06 -.326971034E-06 -.289212458E-05
(PID.TID 0000.0001)       precision_grdchk_result TLM    -1.14865705235554E-01    -3.26970088637474E-07
 ph-grd  ierr ---------------------------
 ph-grd  ierr =  0, icomp =  1, ichknum =  1
(PID.TID 0000.0001)  MDSREADFIELD: opening file: g_xx_theta.0000000000.001.001.data
(PID.TID 0000.0001)  MDSREADFIELD: opening file: g_xx_theta.0000000000.001.001.data
(PID.TID 0000.0001)  MDSREADFIELD: opening global file: bathymetry.bin
(PID.TID 0000.0001) // =======================================================
(PID.TID 0000.0001) // Field Model R_low (ini_masks_etc) at iteration          1
(PID.TID 0000.0001) // CMIN =         -5.200000000000000E+03
(PID.TID 0000.0001) // CMAX =         -1.200000000000000E+02
(PID.TID 0000.0001) // CINT =          1.881481481481482E+02
(PID.TID 0000.0001) // SYMBOLS (CMIN->CMAX): -abcdefghijklmnopqrstuvwxyz+
(PID.TID 0000.0001) //                  0.0: .
(PID.TID 0000.0001) // RANGE I (Lo:Hi:Step):(  -2:  93:   1)
(PID.TID 0000.0001) // RANGE J (Lo:Hi:Step):(  43:  -2:  -1)
(PID.TID 0000.0001) // RANGE K (Lo:Hi:Step):(   1:   1:   1)
(PID.TID 0000.0001) // =======================================================
(PID.TID 0000.0001) K =   1
(PID.TID 0000.0001) //                I=7       I=17      I=27      I=37      I=47      I=57      I=67      I=77      I=87
(PID.TID 0000.0001) // |--J--|210123456|890123456|890123456|890123456|890123456|890123456|890123456|890123456|890123456|890123
(PID.TID 0000.0001) //     43 ................................................................................................
(PID.TID 0000.0001) //     42 .............................................zyxxmgfeeefefgimnpwwwy..+zyy.....yyyyoiiihhz+......
(PID.TID 0000.0001) //     41 ................................................................................................
(PID.TID 0000.0001) //     40 +qlloqz+.++++zzz++++++..................................................................+++qlloq
(PID.TID 0000.0001) //     39 uslloorzzzzzzzzz+...++.....................................................yxxz........+zvuslloo
(PID.TID 0000.0001) //     38 smqpporzzzzzz+++...........................................................zxxy+......zyyvsmqppo
(PID.TID 0000.0001) //     37 smmmuz..................................................................++...zy+...yttyy.+smmmuz
(PID.TID 0000.0001) //     36 yutt+.........................................mm++....................+++++++znmm.yoowssvuyutt+.
(PID.TID 0000.0001) //     35 w++++.................................+zzz..rrmmkk+...+gghn...........+++....+nmiijlsoopuww++++.
(PID.TID 0000.0001) //     34 +.....................................+vvy.ggqyxv+y.ccdffhim..................+nihhikkihhm+.....
(PID.TID 0000.0001) //     33 w+.....................................uuz---h------aaabdefin+.................zqvddflifffw+....
(PID.TID 0000.0001) //     32 m+.....................................+t----h---------acdfgnn................+++gdffkofffm+....
(PID.TID 0000.0001) //     31 m......................................-----ad--------abddegil..............qbaafccdhqqgddm.....
(PID.TID 0000.0001) //     30 i.....................................f----b--b------------abd............zfbb--fbcdosjfddi.....
(PID.TID 0000.0001) //     29 i...................................tu----e---fjg----------abdf...........eaac--abfmijaadgi.....
(PID.TID 0000.0001) //     28 z.................................+xfl-------------------bdedefi.........qbaa---aemfbbaaejz.....
(PID.TID 0000.0001) //     27 .................xx..............+wfgfpf--------eallc---bbbccefgi...+++x.qb-----akfa---ah.......
(PID.TID 0000.0001) //     26 .................xnn...........+vd---dna------a--aicfna---aabdfghku.++xssuy-----bgca---ci.......
(PID.TID 0000.0001) //     25 .................iiik...oo+...+ivd---doaa-bc--ilglf--aa---aabcghhkll...ssum+xaaacjbaabdjk.......
(PID.TID 0000.0001) //     24 ...............xnheeft.kkk+...uii.aagdm----aa-----a-------bbbcdefjljjju.zummwwbbchba--abi.......
(PID.TID 0000.0001) //     23 ...............xgheefp.iikw...uuw..fihi----fed-----eaaa--bbbbcdfflkjiiiq....zykccefa--abd.......
(PID.TID 0000.0001) //     22 quss...........bbelffslffkk...zz.wqkeeqoheccdfa-----egabaabcdddegghliiiqq......xeeehheehccquss..
(PID.TID 0000.0001) //     21 cbbeir........nbbcdjhqdddiiz.....wqfeelgghmedea-----bibbcddddddefghklnqoo........ieeflhgcccbbeir
(PID.TID 0000.0001) //     20 cbbder.......ldcccdgkccccidd......z.vkkktqqhegg----aaacddddddddefghkiiijl.........nhfa--gfcbbder
(PID.TID 0000.0001) //     19 hcdaaf.......kddosggpaaaibbccx...+z+.....r+nlec---agaaabcddccddefikfgffff...........d---cjhcdaaf
(PID.TID 0000.0001) //     18 hd---d.......kglggvliaaaibbcaaeaiv++...qqzolhecccfdgkaabcdfccdeeikgfgffdd+..........d---djhd---d
(PID.TID 0000.0001) //     17 hc---c.......l.feewlfaaaoaa----aiv.....qqnllslmlofcdbaacceffffhhligfigeddj.........hd---ckhc---c
(PID.TID 0000.0001) //     16 gba--c......tn.ddgnlfdaaqa-----lv.......vnllvllnwv--accivomfffhilhgfffeddjf........re--aeigba--c
(PID.TID 0000.0001) //     15 fb--dpz....+ll.ccdfhmdddlc----av.........otsxoomv---abccddfihgijkhgfffeejfff......+fd---ckfb--dp
(PID.TID 0000.0001) //     14 fc--mcl....weeqbaafilkfend--eagy.........hhstofft----aacdheefijkmjhhjijiffff.....zlfdaaadlfc--mc
(PID.TID 0000.0001) //     13 hcclbbg....nccobaaiddgkffqrqeaal.........eeutqfft------aaceeffhijlkjhhigfffq....+jgfodccflhcclbb
(PID.TID 0000.0001) //     12 hhgaaacw+iiicclemhdddfliigfdcaabfaaaz....ccsurqpc--------abcifffikiiihhggff.....kbbbdfffglhhgaaa
(PID.TID 0000.0001) //     11 kgcaaacbbifccennhbbdefnihgfdccaaaa----..dcccnt.ncab-------aabcdfilhggjiggff....l---abcefjlkgcaaa
(PID.TID 0000.0001) //     10 kfcaaccbdaacfrllfbbdegkmmljhfdddba----d.dcccfx.nyrebaba----abcdgilhfeegijgi..+w--aa-abcfilkfcaac
(PID.TID 0000.0001) //      9 lffcdcccaaaoqsolfdeehikihhlllgfedcccccdmdcccf.vyfaaaaaaaa--abdehmjhfeeefglv.++w-----abcdfklffcdc
(PID.TID 0000.0001) //      8 liffjklcaafddffeeccvznkfffhhhlkjifgjkkfeeddfsyvcaaaaaaccdcccdfgjligedbbceg+.++xffn--cfddefliffjk
(PID.TID 0000.0001) //      7 hmqnnbbkkf--bmbaabbgtykfddeffeeddccdfhlffeelfbaaaaaacddeghgjgjlligeddaaabedfiiiiiisvkfkecchmqnnb
(PID.TID 0000.0001) //      6 cca-------------aabcelttdddedddddccccdfkkiiffbaaaabcdgimmkmefecaaabbbaaabbdfiiiiispmmregifcca---
(PID.TID 0000.0001) //      5 --------a-------aaccehhhiddeddddddcccdfiikomodddefffmlmigedccaaaaaaaababbbdfiijsqgeccccbaa------
(PID.TID 0000.0001) //      4 --ahebaabbbbbeihffgijiiiijpywnnpokkomkiiijmmmolkommmgffeeedccaaaaaabbcccefhmz..yjgeccccbaa--aheb
(PID.TID 0000.0001) //      3 gffhhrpjiiwyy............................yxotmjjjjgfeeeeeeddeffffheddeghjkyy..yqjgeddccdbbgffhhr
(PID.TID 0000.0001) //      2 .............................................zyxxmgfeeefefgimnpwwwy..+zyy.....yyyyoiiihhz+......
(PID.TID 0000.0001) //      1 ................................................................................................
(PID.TID 0000.0001) //      0 +qlloqz+.++++zzz++++++..................................................................+++qlloq
(PID.TID 0000.0001) //     -1 uslloorzzzzzzzzz+...++.....................................................yxxz........+zvuslloo
(PID.TID 0000.0001) //     -2 ................................................................................................
(PID.TID 0000.0001) // =======================================================
(PID.TID 0000.0001) // END OF FIELD                                          =
(PID.TID 0000.0001) // =======================================================
(PID.TID 0000.0001) 
(PID.TID 0000.0001) // =======================================================
(PID.TID 0000.0001) // Field Model Ro_surf (ini_masks_etc) at iteration          1
(PID.TID 0000.0001) // CMIN =          1.000000000000000E+32
(PID.TID 0000.0001) // CMAX =         -1.000000000000000E+32
(PID.TID 0000.0001) // CINT =          0.000000000000000E+00
(PID.TID 0000.0001) // SYMBOLS (CMIN->CMAX): -abcdefghijklmnopqrstuvwxyz+
(PID.TID 0000.0001) //                  0.0: .
(PID.TID 0000.0001) // RANGE I (Lo:Hi:Step):(  -2:  93:   1)
(PID.TID 0000.0001) // RANGE J (Lo:Hi:Step):(  43:  -2:  -1)
(PID.TID 0000.0001) // RANGE K (Lo:Hi:Step):(   1:   1:   1)
(PID.TID 0000.0001) // =======================================================
(PID.TID 0000.0001) // =======================================================
(PID.TID 0000.0001) // END OF FIELD                                          =
(PID.TID 0000.0001) // =======================================================
(PID.TID 0000.0001) 
(PID.TID 0000.0001) // =======================================================
(PID.TID 0000.0001) // Field hFacC at iteration          1
(PID.TID 0000.0001) // CMIN =          1.000000000000000E+00
(PID.TID 0000.0001) // CMAX =          1.000000000000000E+00
(PID.TID 0000.0001) // CINT =          0.000000000000000E+00
(PID.TID 0000.0001) // SYMBOLS (CMIN->CMAX): -abcdefghijklmnopqrstuvwxyz+
(PID.TID 0000.0001) //                  0.0: .
(PID.TID 0000.0001) // RANGE I (Lo:Hi:Step):(  -2:  93:   1)
(PID.TID 0000.0001) // RANGE J (Lo:Hi:Step):(  43:  -2:  -1)
(PID.TID 0000.0001) // RANGE K (Lo:Hi:Step):(   1:   1:   1)
(PID.TID 0000.0001) // =======================================================
(PID.TID 0000.0001) // =======================================================
(PID.TID 0000.0001) // END OF FIELD                                          =
(PID.TID 0000.0001) // =======================================================
(PID.TID 0000.0001) 
(PID.TID 0000.0001) // =======================================================
(PID.TID 0000.0001) // Field hFacW at iteration          1
(PID.TID 0000.0001) // CMIN =          1.000000000000000E+00
(PID.TID 0000.0001) // CMAX =          1.000000000000000E+00
(PID.TID 0000.0001) // CINT =          0.000000000000000E+00
(PID.TID 0000.0001) // SYMBOLS (CMIN->CMAX): -abcdefghijklmnopqrstuvwxyz+
(PID.TID 0000.0001) //                  0.0: .
(PID.TID 0000.0001) // RANGE I (Lo:Hi:Step):(  -2:  93:   1)
(PID.TID 0000.0001) // RANGE J (Lo:Hi:Step):(  43:  -2:  -1)
(PID.TID 0000.0001) // RANGE K (Lo:Hi:Step):(   1:   1:   1)
(PID.TID 0000.0001) // =======================================================
(PID.TID 0000.0001) // =======================================================
(PID.TID 0000.0001) // END OF FIELD                                          =
(PID.TID 0000.0001) // =======================================================
(PID.TID 0000.0001) 
(PID.TID 0000.0001) // =======================================================
(PID.TID 0000.0001) // Field hFacS at iteration          1
(PID.TID 0000.0001) // CMIN =          1.000000000000000E+00
(PID.TID 0000.0001) // CMAX =          1.000000000000000E+00
(PID.TID 0000.0001) // CINT =          0.000000000000000E+00
(PID.TID 0000.0001) // SYMBOLS (CMIN->CMAX): -abcdefghijklmnopqrstuvwxyz+
(PID.TID 0000.0001) //                  0.0: .
(PID.TID 0000.0001) // RANGE I (Lo:Hi:Step):(  -2:  93:   1)
(PID.TID 0000.0001) // RANGE J (Lo:Hi:Step):(  43:  -2:  -1)
(PID.TID 0000.0001) // RANGE K (Lo:Hi:Step):(   1:   1:   1)
(PID.TID 0000.0001) // =======================================================
(PID.TID 0000.0001) // =======================================================
(PID.TID 0000.0001) // END OF FIELD                                          =
(PID.TID 0000.0001) // =======================================================
(PID.TID 0000.0001) 
(PID.TID 0000.0001) %MON surfExpanfCori_max           =   1.4226580169407E-04
(PID.TID 0000.0001) %MON surfExpanfCori_min           =  -1.4226580169407E-04
(PID.TID 0000.0001) %MON surfExpanfCori_mean          =   7.5291817533716E-23
(PID.TID 0000.0001) %MON surfExpanfCori_sd            =   9.6335367303778E-05
(PID.TID 0000.0001) %MON surfExpanfCoriG_max          =   1.4112379284621E-04
(PID.TID 0000.0001) %MON surfExpanfCoriG_min          =  -1.4323448157692E-04
(PID.TID 0000.0001) %MON surfExpanfCoriG_mean         =  -3.6726790147928E-06
(PID.TID 0000.0001) %MON surfExpanfCoriG_sd           =   9.7510077443652E-05
(PID.TID 0000.0001) %MON surfExpanfCoriCos_max        =   1.4535550371427E-04
(PID.TID 0000.0001) %MON surfExpanfCoriCos_min        =   3.0239529651320E-05
(PID.TID 0000.0001) %MON surfExpanfCoriCos_mean       =   1.0260497651149E-04
(PID.TID 0000.0001) %MON surfExpanfCoriCos_sd         =   3.6683828681187E-05
(PID.TID 0000.0001) INI_CG2D: CG2D normalisation factor =  6.5682677425711703E-05
(PID.TID 0000.0001) 
(PID.TID 0000.0001)  MDSREADFIELD: opening global file: lev_t.bin
(PID.TID 0000.0001) // =======================================================
(PID.TID 0000.0001) // Field Initial Temperature at iteration          1
(PID.TID 0000.0001) // CMIN =         -1.900000000000000E+00
(PID.TID 0000.0001) // CMAX =          2.973338890075684E+01
(PID.TID 0000.0001) // CINT =          1.171606996324327E+00
(PID.TID 0000.0001) // SYMBOLS (CMIN->CMAX): -abcdefghijklmnopqrstuvwxyz+
(PID.TID 0000.0001) //                  0.0: .
(PID.TID 0000.0001) // RANGE I (Lo:Hi:Step):(   1:  90:   1)
(PID.TID 0000.0001) // RANGE J (Lo:Hi:Step):(  40:   1:  -1)
(PID.TID 0000.0001) // RANGE K (Lo:Hi:Step):(   1:   1:   1)
(PID.TID 0000.0001) // =======================================================
(PID.TID 0000.0001) K =   1
(PID.TID 0000.0001)                I=10      I=20      I=30      I=40      I=50      I=60      I=70      I=80      I=90
(PID.TID 0000.0001) |--J--|123456789|123456789|123456789|123456789|123456789|123456789|123456789|123456789|123456789|
(PID.TID 0000.0001)     40 bccdd.baa----abdedd..................................................................bbbbb
(PID.TID 0000.0001)     39 ccdddddccbbbaa...ed.....................................................----........bbbbbb
(PID.TID 0000.0001)     38 fffgfedeedddc...........................................................-----......cbbbcde
(PID.TID 0000.0001)     37 ghh..................................................................bc...bbc...edeed.defg
(PID.TID 0000.0001)     36 hh.........................................ddcb....................dcccbabccdd.eefghhihhih
(PID.TID 0000.0001)     35 hh.................................aaab..dddeddd...ffggg...........ccc....ddeeeffghijjjjih
(PID.TID 0000.0001)     34 ...................................babb.deeeeeee.ffffgghh..................ccdffghijkkkj..
(PID.TID 0000.0001)     33 ....................................accdddeeeeefffffgghhiii.................bcfijkkllllkk.
(PID.TID 0000.0001)     32 ....................................bdddeffgffgghhhhhiiijjj................dccglmnmmmmlll.
(PID.TID 0000.0001)     31 ....................................fghiiiijjjjjjkkkkklllkk..............ikkjjmooooonnmm..
(PID.TID 0000.0001)     30 ...................................mmmnmmmmmmmmmmmmmnnnnnmm............moqrrrqrqqqpppooo..
(PID.TID 0000.0001)     29 .................................pqqqqqpppppppppoppoppppponm...........ssssssrrrrrqqqqpp..
(PID.TID 0000.0001)     28 ...............................prssssrrrsssrrrrrrrrrrrrrqqpoo.........uttssstssrssrrrqqq..
(PID.TID 0000.0001)     27 ..............vv..............stuttuuuuutuuuuuuuuuuttttssrrqqq...stuu.vvvuuuuutttttsss....
(PID.TID 0000.0001)     26 ..............vvv...........uuvvvvvwwwwwwwwvvvvvvvvvuuutttsssttv.uuvxxwwwwwwvvvvuuttsr....
(PID.TID 0000.0001)     25 ..............wwwx...xxx...vvvxxxxxyyxxxxxxxxxwwwwwvvvvvuuuuuvwwx...xxxxxxwwwwwwvvutsr....
(PID.TID 0000.0001)     24 ............wwwwxyy.xxyy...wxx.yyyyyyyyyyyxxxxxxxxwwwwwwwvvwwxxyywww.xxxxxxxxxxwwwvvur....
(PID.TID 0000.0001)     23 ............xxxyyyz.xyyy...xxx..yyyyzzyyyyyyyyxxxxxxxxxwwwwwxxxwwwwwx....vwxxxxwwwwwvu....
(PID.TID 0000.0001)     22 w...........xxyyyzyyyyyz...xx.yyzzzzzzzzzzzzzyyzyyyyyyxxwwxxxxwvvvwwxw......yyyyxxxxxxwxxw
(PID.TID 0000.0001)     21 xxx........xxxxyyzzzzzzz+.....zyzzzzzzz++zzzzyyyyyyyyxxwvvwwwwvvvvvvvu........yyyyyyyyyxxx
(PID.TID 0000.0001)     20 xww.......xyyyyxyyzzzzzz+......z.zzzzz+++zzzzzzyyyyyxxxxwvwxwvuuuuuuut.........yyyyxxxxwww
(PID.TID 0000.0001)     19 vvv.......yyyyxwwxyzyyzzzzz...zzz.....++++++z++z+zzzyyyyxxxxwwvvvvvvvu...........yyxxxwwww
(PID.TID 0000.0001)     18 uut.......zzyyywwxyzyyyyzzyzzzzzz...z+z++++zz+++++++zzzyyyyxxwwwvvvvvtt..........yyxxwvvwv
(PID.TID 0000.0001)     17 uus.......z.yyyyyyxyzzyyyyyyyzz.....yzzzzzzzzzzzzzzzzzzyyyyxxwwvuuvvuut.........yyyxxwttvu
(PID.TID 0000.0001)     16 utr......yy.zyyyyxxxxxxxwxxxxy.......yyyyyyyyyyyyyyyyyyyyyyyxxwvvvuuutts........xyyyxwvuuu
(PID.TID 0000.0001)     15 ttrr....xxx.xxxwxwwwwvwwvvvww.........xwxxxxxxxxxxxxxxxxxyyyxwwwvvuttssrr......wxxxxxwwvuu
(PID.TID 0000.0001)     14 ttsq....xyxwwxwvwwwvutuuuuuuu.........wwvwwwwvwvvwwwvwvvwwwwwwvvvuuutssrr.....vwwwwwwwvvvu
(PID.TID 0000.0001)     13 tttr....wwwvvvtttuuuutttssttt.........vvvuuuuuuutttttuuuuuvwwwuuuttttssrr....uvvvvvvvvvvut
(PID.TID 0000.0001)     12 sssssstttutssssrrrrrstrqqrrssqqrrq....uuttssssrrrrrrrrrrrstttssssrssrrqp.....uuuttssttssss
(PID.TID 0000.0001)     11 poprsssrqqqqqrqppooopqpoppppppppppp..sssrrr.rqpppqqqqppppqqqoppqqqqrqqpp....prsrqqqqqppppq
(PID.TID 0000.0001)     10 lllmoooonmnnmnnnnmmmmmmlmmlllmnnnnon.qqqppp.ppppppooooooooonmnnnonnooooo..nmoponnmnnnnnmll
(PID.TID 0000.0001)      9 ihhiiiihhhhhhiiihiiiiihhhiiiijjkkmnllnnnnn.mmmmnnnnmmmmnnmmlklllllklllll.mllmmllkjiijjihhi
(PID.TID 0000.0001)      8 eeeeeeeedefgggffeeffggffffggghiiiijjijklklkkkkkkkklllkkkkjjiiijkjjjjjjkj.kkjjiihggffffedde
(PID.TID 0000.0001)      7 cccccddeedddefeddddddddddefeefffffgggghiiiiiijjjihhgggghhhhhghhhhhhhiiiihiihhgfeddddddcccc
(PID.TID 0000.0001)      6 abbcccddcccccdddddccdddddddccddddddeeeeffggggghhgeddddddeeeeeeefggggghggggffeedccbbbbbbbba
(PID.TID 0000.0001)      5 bbbcccccccccccccccccccccbbccccdddddddcccddeeddeedcbbbbbbccccccdddeeeeeddddddccbbbbaaaaaaab
(PID.TID 0000.0001)      4 bbbbbbbaaabbbbbbbbbbbbaabbabbbbcbbbbbbbbbbbbbbbbbbbabbaaabbbbbbbbbbbbbbbbb..a--aaabbbaaabb
(PID.TID 0000.0001)      3 bbbbaaa-a-............................bbaaaaaaaaaaaaaaaaaaaaaaaaaaaaaaaab..aaaaaaaabbbaaaa
(PID.TID 0000.0001)      2 ..........................................baaaaaaaaaaaa-------aa..aaaa.....aaaaaaaaaaaa...
(PID.TID 0000.0001)      1 ..........................................................................................
(PID.TID 0000.0001) // =======================================================
(PID.TID 0000.0001) // END OF FIELD                                          =
(PID.TID 0000.0001) // =======================================================
(PID.TID 0000.0001) 
(PID.TID 0000.0001)  MDSREADFIELD: opening global file: lev_s.bin
(PID.TID 0000.0001) // =======================================================
(PID.TID 0000.0001) // Field Initial Salinity at iteration          1
(PID.TID 0000.0001) // CMIN =          2.975276947021484E+01
(PID.TID 0000.0001) // CMAX =          3.747562789916992E+01
(PID.TID 0000.0001) // CINT =          2.860317936650029E-01
(PID.TID 0000.0001) // SYMBOLS (CMIN->CMAX): -abcdefghijklmnopqrstuvwxyz+
(PID.TID 0000.0001) //                  0.0: .
(PID.TID 0000.0001) // RANGE I (Lo:Hi:Step):(   1:  90:   1)
(PID.TID 0000.0001) // RANGE J (Lo:Hi:Step):(  40:   1:  -1)
(PID.TID 0000.0001) // RANGE K (Lo:Hi:Step):(   1:   1:   1)
(PID.TID 0000.0001) // =======================================================
(PID.TID 0000.0001) K =   1
(PID.TID 0000.0001)                I=10      I=20      I=30      I=40      I=50      I=60      I=70      I=80      I=90
(PID.TID 0000.0001) |--J--|123456789|123456789|123456789|123456789|123456789|123456789|123456789|123456789|123456789|
(PID.TID 0000.0001)     40 qrrrr.oonnooopqtutt..................................................................mnnop
(PID.TID 0000.0001)     39 rssrrrrrrrqqpn...ut.....................................................mmmm........opqqqr
(PID.TID 0000.0001)     38 ssrrqqqqrrqpo...........................................................lkkll......onoqrrs
(PID.TID 0000.0001)     37 ssr..................................................................hg...lln...qppqr.rrrs
(PID.TID 0000.0001)     36 rr.........................................lkji....................feeegikmoop.pqrssssssss
(PID.TID 0000.0001)     35 rr.................................kkkk..lllllki...jijjj...........aa-....opqrrrrrrrssttss
(PID.TID 0000.0001)     34 ...................................jlll.kklllllk.ijkkkjih..................hlpqrqrrsstts..
(PID.TID 0000.0001)     33 ....................................iklkkkkkkkkkjkkjjjjjjii.................jmprrsstttttt.
(PID.TID 0000.0001)     32 ....................................iklllkllllllllkkkkkkkji................gilpstuuttuuut.
(PID.TID 0000.0001)     31 ....................................lmnonnnnoooonnmmmmllkjj..............loopqtvvvuuuuuu..
(PID.TID 0000.0001)     30 ...................................pppppppqqqqpppoooonnmlkk............ptvxwwvvwvvvvvvvu..
(PID.TID 0000.0001)     29 .................................pqqrqqqqqqrrrqqppqqqpponmll...........vxxxxxxwwwwwxwwxw..
(PID.TID 0000.0001)     28 ...............................prrrrrqqrrrrrsrrsrssssssrqonmm.........wxxxxxxxyyyyyyyyxx..
(PID.TID 0000.0001)     27 ..............xx..............prrrrrrrrrssssssstttssssssrqpoop...uwww.wwxxxyyy++zzzzyy....
(PID.TID 0000.0001)     26 ..............wxx...........ppqrrrrrrsssrrstsstttssrrrrrrrqppqqp.wwwvvwwwwwxyy+++zzyxw....
(PID.TID 0000.0001)     25 ..............wxxv...kkk...ooopqrrrrrssrrrrrrrssssqqpppppppppppoo...vvutuuvvwxyyyxxvvu....
(PID.TID 0000.0001)     24 ............uvvwwur.lmlk...nmm.pqqqqrrrrrqqqqrrqqrpppppooooonmmmnooo.uuuuuuttuvvvuvuut....
(PID.TID 0000.0001)     23 ............vvuvtqp.lmml...mln..ppppqpqppppppqpppppppppqppponnnnnoopm....xvuuuvvvvuuut....
(PID.TID 0000.0001)     22 r...........vuttsqqpnppn...mm.oppqqrrqqqqqqppppqqrrrqqqrrppppoopooomjj......uuvvvvvuttssrr
(PID.TID 0000.0001)     21 qmm........ttsssssssrsqon.....opqqqqqqqrrrrqqqssssssrrrrrrrrpqqqppomll........tvvvvuttssrr
(PID.TID 0000.0001)     20 sqq.......sttssrrsrrrrpol......p.qrqpqrrrrrrrstttttsssrrsssrqrrrrqqqpo.........wwwvvvuuutt
(PID.TID 0000.0001)     19 tsr.......ssssrrrrpppppnmmm...oqq.....qrqqsrrstttuuuttssttssrrssrrrrqq...........wwwvuvvvv
(PID.TID 0000.0001)     18 wut.......ssrrrrrqppppppppoooorrr...poqqqprrrttttuuutuuuuuutttttttutsss..........yyxwwxwxx
(PID.TID 0000.0001)     17 wwu.......s.rrrrrrqppppqqqqqqqr.....rrsrqrsssuusrtuuuvvvwwvvvuuuuutttss.........xyzyyyyxxx
(PID.TID 0000.0001)     16 vvt......ss.qrrssrqrqpqrrrrrrr.......ssrrstsstusrsuuuvwwwwxxwwvvvuttttsr........yz+zzzxwww
(PID.TID 0000.0001)     15 utss....stt.rrssstttsrrsrstsr.........ssstttssttsuuttuvvvvwxwwwwwuttsssrr......xyyyyxyyxwv
(PID.TID 0000.0001)     14 utts....sstrrssstuuuuuuuuuutt.........stttuutttttttuttttttuvvvvvvutsrqrrr.....vxxwwwwxwvwv
(PID.TID 0000.0001)     13 uuut....ttttttttuuuuuvtuuuuuu.........ttttuutttttttuutsssstttttstsqrqqppp....uwwwvuvvvutvv
(PID.TID 0000.0001)     12 ttttttttttttttttttttttssuuuuutuuut....tttttttttttsssssrrrrrrrqqqqqppppoo.....rvvuuttttttuu
(PID.TID 0000.0001)     11 rqsttttttttuuttttsssssrrstttttttsss..ttttts.tsssrrrrqqqqqppppoonnooooooo....oruttttsssrqrs
(PID.TID 0000.0001)     10 pppqrssrqqrqpqrssrrqqqqqqrrrrrrrrrrs.sssssr.rssrrqqpppppppooooonnnoooonn..moqrrrqqqqqqqqqq
(PID.TID 0000.0001)      9 oonooooooooonnnooooooooooppppppqqqqqrrrqrq.pppqqqqqppppppppppoooooooooll.lmoqqqqppooooopoo
(PID.TID 0000.0001)      8 nnnoonooooooonnnnnnnoooonoonoooppopqqqqqqqppopppqqqpppppppppppppppooopon.lnopppoooonnnnooo
(PID.TID 0000.0001)      7 ooooooooooopponnnooooooonnnnnonnooooooooopppppppoooooooooopppppppppoopqnnmnoooonnnonnnnnno
(PID.TID 0000.0001)      6 oooonnoonnnnooooooooooooonnnnnnnnnnnnnnnnoooopppooooooooooooooppppppppppoooooooonnnnnmnnnn
(PID.TID 0000.0001)      5 oooonnnnnnnnnnnnnnnnnoooooonnnnnnonnnnnnnnnoooooooooooonnnnnnooooooopoooonoooonnnnnnnooooo
(PID.TID 0000.0001)      4 oooonnnooonnnnnnnnnnnnnnoooooonnnooooonnnooooooooppponnnnmmmnnnnmnnoonnnnn..nnnooooooooooo
(PID.TID 0000.0001)      3 ooonnnnnnn............................nnoooooonnooooonnnnnnnoonnnnnnnnmmm..ooopooooooooooo
(PID.TID 0000.0001)      2 ..........................................pppooooonnnnnnoooppppo..nnnn.....qqqpppoooooo...
(PID.TID 0000.0001)      1 ..........................................................................................
(PID.TID 0000.0001) // =======================================================
(PID.TID 0000.0001) // END OF FIELD                                          =
(PID.TID 0000.0001) // =======================================================
(PID.TID 0000.0001) 
(PID.TID 0000.0001) Start initial hydrostatic pressure computation
(PID.TID 0000.0001) Pressure is predetermined for buoyancyRelation OCEANIC
(PID.TID 0000.0001) 
(PID.TID 0000.0001)  MDSREADFIELD: opening file: xx_theta.0000000000.001.001.data
(PID.TID 0000.0001)  MDSREADFIELD: opening file: g_xx_theta.0000000000.001.001.data
(PID.TID 0000.0001)  MDSREADFIELD: opening file: xx_salt.0000000000.001.001.data
(PID.TID 0000.0001)  MDSREADFIELD: opening file: g_xx_salt.0000000000.001.001.data
(PID.TID 0000.0001)  MDSREADFIELD: opening file: xx_diffkr.0000000000.001.001.data
(PID.TID 0000.0001)  MDSREADFIELD: opening file: g_xx_diffkr.0000000000.001.001.data
(PID.TID 0000.0001)  MDSREADFIELD: opening global file: trenberth_taux.bin
(PID.TID 0000.0001)  MDSREADFIELD: opening global file: trenberth_tauy.bin
(PID.TID 0000.0001)  MDSREADFIELD: opening global file: ncep_qnet.bin
(PID.TID 0000.0001)  MDSREADFIELD: opening global file: lev_sst.bin
(PID.TID 0000.0001)  MDSREADFIELD: opening global file: lev_sss.bin
(PID.TID 0000.0001) // =======================================================
(PID.TID 0000.0001) // Model current state
(PID.TID 0000.0001) // =======================================================
(PID.TID 0000.0001) 
(PID.TID 0000.0001) // =======================================================
(PID.TID 0000.0001) // Begin MONITOR dynamic field statistics
(PID.TID 0000.0001) // =======================================================
(PID.TID 0000.0001) %MON g__time_tsnumber             =                     0
(PID.TID 0000.0001) %MON g__time_secondsf             =   0.0000000000000E+00
(PID.TID 0000.0001) %MON g__dynstat_g_eta_max         =   0.0000000000000E+00
(PID.TID 0000.0001) %MON g__dynstat_g_eta_min         =   0.0000000000000E+00
(PID.TID 0000.0001) %MON g__dynstat_g_eta_mean        =   0.0000000000000E+00
(PID.TID 0000.0001) %MON g__dynstat_g_eta_sd          =   0.0000000000000E+00
(PID.TID 0000.0001) %MON g__dynstat_g_eta_del2        =   0.0000000000000E+00
(PID.TID 0000.0001) %MON g__dynstat_g_uvel_max        =   0.0000000000000E+00
(PID.TID 0000.0001) %MON g__dynstat_g_uvel_min        =   0.0000000000000E+00
(PID.TID 0000.0001) %MON g__dynstat_g_uvel_mean       =   0.0000000000000E+00
(PID.TID 0000.0001) %MON g__dynstat_g_uvel_sd         =   0.0000000000000E+00
(PID.TID 0000.0001) %MON g__dynstat_g_uvel_del2       =   0.0000000000000E+00
(PID.TID 0000.0001) %MON g__dynstat_g_vvel_max        =   0.0000000000000E+00
(PID.TID 0000.0001) %MON g__dynstat_g_vvel_min        =   0.0000000000000E+00
(PID.TID 0000.0001) %MON g__dynstat_g_vvel_mean       =   0.0000000000000E+00
(PID.TID 0000.0001) %MON g__dynstat_g_vvel_sd         =   0.0000000000000E+00
(PID.TID 0000.0001) %MON g__dynstat_g_vvel_del2       =   0.0000000000000E+00
(PID.TID 0000.0001) %MON g__dynstat_g_wvel_max        =   0.0000000000000E+00
(PID.TID 0000.0001) %MON g__dynstat_g_wvel_min        =   0.0000000000000E+00
(PID.TID 0000.0001) %MON g__dynstat_g_wvel_mean       =   0.0000000000000E+00
(PID.TID 0000.0001) %MON g__dynstat_g_wvel_sd         =   0.0000000000000E+00
(PID.TID 0000.0001) %MON g__dynstat_g_wvel_del2       =   0.0000000000000E+00
(PID.TID 0000.0001) %MON g__dynstat_g_theta_max       =   1.0000000000000E+00
(PID.TID 0000.0001) %MON g__dynstat_g_theta_min       =   0.0000000000000E+00
(PID.TID 0000.0001) %MON g__dynstat_g_theta_mean      =   2.0602468203094E-06
(PID.TID 0000.0001) %MON g__dynstat_g_theta_sd        =   1.4353545121997E-03
(PID.TID 0000.0001) %MON g__dynstat_g_theta_del2      =   5.1178818792862E-05
(PID.TID 0000.0001) %MON g__dynstat_g_salt_max        =   0.0000000000000E+00
(PID.TID 0000.0001) %MON g__dynstat_g_salt_min        =   0.0000000000000E+00
(PID.TID 0000.0001) %MON g__dynstat_g_salt_mean       =   0.0000000000000E+00
(PID.TID 0000.0001) %MON g__dynstat_g_salt_sd         =   0.0000000000000E+00
(PID.TID 0000.0001) %MON g__dynstat_g_salt_del2       =   0.0000000000000E+00
(PID.TID 0000.0001) %MON g__dynstat_g_sst_max         =   1.0000000000000E+00
(PID.TID 0000.0001) %MON g__dynstat_g_sst_min         =   0.0000000000000E+00
(PID.TID 0000.0001) %MON g__dynstat_g_sst_mean        =   1.5794542826321E-04
(PID.TID 0000.0001) %MON g__dynstat_g_sst_sd          =   1.2566641615997E-02
(PID.TID 0000.0001) %MON g__dynstat_g_sst_del2        =   6.4794816414687E-04
(PID.TID 0000.0001) %MON g__dynstat_g_sss_max         =   0.0000000000000E+00
(PID.TID 0000.0001) %MON g__dynstat_g_sss_min         =   0.0000000000000E+00
(PID.TID 0000.0001) %MON g__dynstat_g_sss_mean        =   0.0000000000000E+00
(PID.TID 0000.0001) %MON g__dynstat_g_sss_sd          =   0.0000000000000E+00
(PID.TID 0000.0001) %MON g__dynstat_g_sss_del2        =   0.0000000000000E+00
(PID.TID 0000.0001) %MON g__extforcing_g_qnet_max     =   0.0000000000000E+00
(PID.TID 0000.0001) %MON g__extforcing_g_qnet_min     =   0.0000000000000E+00
(PID.TID 0000.0001) %MON g__extforcing_g_qnet_mean    =   0.0000000000000E+00
(PID.TID 0000.0001) %MON g__extforcing_g_qnet_sd      =   0.0000000000000E+00
(PID.TID 0000.0001) %MON g__extforcing_g_qnet_del2    =   0.0000000000000E+00
(PID.TID 0000.0001) %MON g__extforcing_g_empmr_max    =   0.0000000000000E+00
(PID.TID 0000.0001) %MON g__extforcing_g_empmr_min    =   0.0000000000000E+00
(PID.TID 0000.0001) %MON g__extforcing_g_empmr_mean   =   0.0000000000000E+00
(PID.TID 0000.0001) %MON g__extforcing_g_empmr_sd     =   0.0000000000000E+00
(PID.TID 0000.0001) %MON g__extforcing_g_empmr_del2   =   0.0000000000000E+00
(PID.TID 0000.0001) %MON g__extforcing_g_fu_max       =   0.0000000000000E+00
(PID.TID 0000.0001) %MON g__extforcing_g_fu_min       =   0.0000000000000E+00
(PID.TID 0000.0001) %MON g__extforcing_g_fu_mean      =   0.0000000000000E+00
(PID.TID 0000.0001) %MON g__extforcing_g_fu_sd        =   0.0000000000000E+00
(PID.TID 0000.0001) %MON g__extforcing_g_fu_del2      =   0.0000000000000E+00
(PID.TID 0000.0001) %MON g__extforcing_g_fv_max       =   0.0000000000000E+00
(PID.TID 0000.0001) %MON g__extforcing_g_fv_min       =   0.0000000000000E+00
(PID.TID 0000.0001) %MON g__extforcing_g_fv_mean      =   0.0000000000000E+00
(PID.TID 0000.0001) %MON g__extforcing_g_fv_sd        =   0.0000000000000E+00
(PID.TID 0000.0001) %MON g__extforcing_g_fv_del2      =   0.0000000000000E+00
(PID.TID 0000.0001) %MON g__g_vcfl_g_uvel_max         =   0.0000000000000E+00
(PID.TID 0000.0001) %MON g__g_vcfl_g_vvel_max         =   0.0000000000000E+00
(PID.TID 0000.0001) %MON g__g_vcfl_g_wvel_max         =   0.0000000000000E+00
(PID.TID 0000.0001) %MON g__g_vcfl_g_W_hf_max         =   0.0000000000000E+00
(PID.TID 0000.0001) // =======================================================
(PID.TID 0000.0001) // End MONITOR dynamic field statistics
(PID.TID 0000.0001) // =======================================================
(PID.TID 0000.0001)  MDSREADFIELD: opening global file: trenberth_taux.bin
(PID.TID 0000.0001)  MDSREADFIELD: opening global file: trenberth_taux.bin
(PID.TID 0000.0001)  MDSREADFIELD: opening global file: trenberth_tauy.bin
(PID.TID 0000.0001)  MDSREADFIELD: opening global file: trenberth_tauy.bin
(PID.TID 0000.0001)  MDSREADFIELD: opening global file: ncep_qnet.bin
(PID.TID 0000.0001)  MDSREADFIELD: opening global file: ncep_qnet.bin
(PID.TID 0000.0001)  MDSREADFIELD: opening global file: lev_sst.bin
(PID.TID 0000.0001)  MDSREADFIELD: opening global file: lev_sst.bin
(PID.TID 0000.0001)  MDSREADFIELD: opening global file: lev_sss.bin
(PID.TID 0000.0001)  MDSREADFIELD: opening global file: lev_sss.bin
(PID.TID 0000.0001)  MDSREADFIELD: opening file: xx_tauu.0000000000.001.001.data
(PID.TID 0000.0001)  MDSREADFIELD: opening file: g_xx_tauu.0000000000.001.001.data
(PID.TID 0000.0001)  MDSREADFIELD: opening file: xx_tauv.0000000000.001.001.data
(PID.TID 0000.0001)  MDSREADFIELD: opening file: g_xx_tauv.0000000000.001.001.data
(PID.TID 0000.0001)  MDSREADFIELD: opening file: xx_sflux.0000000000.001.001.data
(PID.TID 0000.0001)  MDSREADFIELD: opening file: g_xx_sflux.0000000000.001.001.data
(PID.TID 0000.0001)  MDSREADFIELD: opening file: xx_hflux.0000000000.001.001.data
(PID.TID 0000.0001)  MDSREADFIELD: opening file: g_xx_hflux.0000000000.001.001.data
 myIter=  0
(PID.TID 0000.0001) // Model state written, timestep         0
(PID.TID 0000.0001) 
 cg2d: Sum(rhs),rhsMax =  -7.97972798949331E-17  6.42633435390605E-03
 cg2d: Sum(rhs),rhsMax =  -4.02455846426619E-15  2.53364304519873E+00
(PID.TID 0000.0001) // =======================================================
(PID.TID 0000.0001) // Begin MONITOR dynamic field statistics
(PID.TID 0000.0001) // =======================================================
(PID.TID 0000.0001) %MON g__time_tsnumber             =                     1
(PID.TID 0000.0001) %MON g__time_secondsf             =   4.3200000000000E+04
(PID.TID 0000.0001) %MON g__dynstat_g_eta_max         =   1.2660729827274E-03
(PID.TID 0000.0001) %MON g__dynstat_g_eta_min         =  -5.4010547290546E-04
(PID.TID 0000.0001) %MON g__dynstat_g_eta_mean        =   2.4361797039336E-20
(PID.TID 0000.0001) %MON g__dynstat_g_eta_sd          =   1.8191615168582E-05
(PID.TID 0000.0001) %MON g__dynstat_g_eta_del2        =   1.3157141763692E-06
(PID.TID 0000.0001) %MON g__dynstat_g_uvel_max        =   1.8016474211811E-04
(PID.TID 0000.0001) %MON g__dynstat_g_uvel_min        =  -1.8263162781414E-04
(PID.TID 0000.0001) %MON g__dynstat_g_uvel_mean       =  -1.9315473343707E-09
(PID.TID 0000.0001) %MON g__dynstat_g_uvel_sd         =   1.0200157201540E-06
(PID.TID 0000.0001) %MON g__dynstat_g_uvel_del2       =   5.8683496770874E-08
(PID.TID 0000.0001) %MON g__dynstat_g_vvel_max        =   5.9929781680664E-07
(PID.TID 0000.0001) %MON g__dynstat_g_vvel_min        =  -7.6641753842189E-05
(PID.TID 0000.0001) %MON g__dynstat_g_vvel_mean       =  -2.6618711228491E-09
(PID.TID 0000.0001) %MON g__dynstat_g_vvel_sd         =   3.1195953639684E-07
(PID.TID 0000.0001) %MON g__dynstat_g_vvel_del2       =   1.3707922060023E-08
(PID.TID 0000.0001) %MON g__dynstat_g_wvel_max        =   1.0614270923282E-06
(PID.TID 0000.0001) %MON g__dynstat_g_wvel_min        =  -4.5619552182410E-07
(PID.TID 0000.0001) %MON g__dynstat_g_wvel_mean       =  -7.6337385080326E-28
(PID.TID 0000.0001) %MON g__dynstat_g_wvel_sd         =   3.2417855352495E-09
(PID.TID 0000.0001) %MON g__dynstat_g_wvel_del2       =   3.0321779107282E-10
(PID.TID 0000.0001) %MON g__dynstat_g_theta_max       =   9.8540862607279E-01
(PID.TID 0000.0001) %MON g__dynstat_g_theta_min       =  -1.9901247646777E-04
(PID.TID 0000.0001) %MON g__dynstat_g_theta_mean      =   2.0430780968068E-06
(PID.TID 0000.0001) %MON g__dynstat_g_theta_sd        =   1.4144218508022E-03
(PID.TID 0000.0001) %MON g__dynstat_g_theta_del2      =   5.0360501691230E-05
(PID.TID 0000.0001) %MON g__dynstat_g_salt_max        =   1.8179083837529E-04
(PID.TID 0000.0001) %MON g__dynstat_g_salt_min        =  -3.5768361237171E-04
(PID.TID 0000.0001) %MON g__dynstat_g_salt_mean       =   2.4881829289528E-23
(PID.TID 0000.0001) %MON g__dynstat_g_salt_sd         =   6.4294454923343E-07
(PID.TID 0000.0001) %MON g__dynstat_g_salt_del2       =   4.1778409185186E-08
(PID.TID 0000.0001) %MON g__dynstat_g_sst_max         =   9.8540862607279E-01
(PID.TID 0000.0001) %MON g__dynstat_g_sst_min         =  -2.0222012115653E-09
(PID.TID 0000.0001) %MON g__dynstat_g_sst_mean        =   1.5654157360143E-04
(PID.TID 0000.0001) %MON g__dynstat_g_sst_sd          =   1.2383361404769E-02
(PID.TID 0000.0001) %MON g__dynstat_g_sst_del2        =   6.3727187567262E-04
(PID.TID 0000.0001) %MON g__dynstat_g_sss_max         =   1.8179083837529E-04
(PID.TID 0000.0001) %MON g__dynstat_g_sss_min         =  -3.5768361237171E-04
(PID.TID 0000.0001) %MON g__dynstat_g_sss_mean        =  -2.7347034405292E-10
(PID.TID 0000.0001) %MON g__dynstat_g_sss_sd          =   5.4144320938681E-06
(PID.TID 0000.0001) %MON g__dynstat_g_sss_del2        =   4.2956211657351E-07
(PID.TID 0000.0001) %MON g__extforcing_g_qnet_max     =   0.0000000000000E+00
(PID.TID 0000.0001) %MON g__extforcing_g_qnet_min     =   0.0000000000000E+00
(PID.TID 0000.0001) %MON g__extforcing_g_qnet_mean    =   0.0000000000000E+00
(PID.TID 0000.0001) %MON g__extforcing_g_qnet_sd      =   0.0000000000000E+00
(PID.TID 0000.0001) %MON g__extforcing_g_qnet_del2    =   0.0000000000000E+00
(PID.TID 0000.0001) %MON g__extforcing_g_empmr_max    =   0.0000000000000E+00
(PID.TID 0000.0001) %MON g__extforcing_g_empmr_min    =   0.0000000000000E+00
(PID.TID 0000.0001) %MON g__extforcing_g_empmr_mean   =   0.0000000000000E+00
(PID.TID 0000.0001) %MON g__extforcing_g_empmr_sd     =   0.0000000000000E+00
(PID.TID 0000.0001) %MON g__extforcing_g_empmr_del2   =   0.0000000000000E+00
(PID.TID 0000.0001) %MON g__extforcing_g_fu_max       =   0.0000000000000E+00
(PID.TID 0000.0001) %MON g__extforcing_g_fu_min       =   0.0000000000000E+00
(PID.TID 0000.0001) %MON g__extforcing_g_fu_mean      =   0.0000000000000E+00
(PID.TID 0000.0001) %MON g__extforcing_g_fu_sd        =   0.0000000000000E+00
(PID.TID 0000.0001) %MON g__extforcing_g_fu_del2      =   0.0000000000000E+00
(PID.TID 0000.0001) %MON g__extforcing_g_fv_max       =   0.0000000000000E+00
(PID.TID 0000.0001) %MON g__extforcing_g_fv_min       =   0.0000000000000E+00
(PID.TID 0000.0001) %MON g__extforcing_g_fv_mean      =   0.0000000000000E+00
(PID.TID 0000.0001) %MON g__extforcing_g_fv_sd        =   0.0000000000000E+00
(PID.TID 0000.0001) %MON g__extforcing_g_fv_del2      =   0.0000000000000E+00
(PID.TID 0000.0001) %MON g__g_vcfl_g_uvel_max         =   6.4364273340156E-05
(PID.TID 0000.0001) %MON g__g_vcfl_g_vvel_max         =   7.4451317927929E-06
(PID.TID 0000.0001) %MON g__g_vcfl_g_wvel_max         =   1.8231450951275E-03
(PID.TID 0000.0001) %MON g__g_vcfl_g_W_hf_max         =   1.8341460155431E-03
(PID.TID 0000.0001) // =======================================================
(PID.TID 0000.0001) // End MONITOR dynamic field statistics
(PID.TID 0000.0001) // =======================================================
 cg2d: Sum(rhs),rhsMax =  -3.23489082935463E-14  1.19177152806551E-02
 cg2d: Sum(rhs),rhsMax =   2.26207941267376E-14  5.05307478634995E+00
(PID.TID 0000.0001) // =======================================================
(PID.TID 0000.0001) // Begin MONITOR dynamic field statistics
(PID.TID 0000.0001) // =======================================================
(PID.TID 0000.0001) %MON g__time_tsnumber             =                     2
(PID.TID 0000.0001) %MON g__time_secondsf             =   8.6400000000000E+04
(PID.TID 0000.0001) %MON g__dynstat_g_eta_max         =   2.4073898156333E-03
(PID.TID 0000.0001) %MON g__dynstat_g_eta_min         =  -9.4730475724303E-04
(PID.TID 0000.0001) %MON g__dynstat_g_eta_mean        =   5.1522128986209E-20
(PID.TID 0000.0001) %MON g__dynstat_g_eta_sd          =   3.3533938928062E-05
(PID.TID 0000.0001) %MON g__dynstat_g_eta_del2        =   2.3245879299878E-06
(PID.TID 0000.0001) %MON g__dynstat_g_uvel_max        =   1.6705169561700E-04
(PID.TID 0000.0001) %MON g__dynstat_g_uvel_min        =  -1.9393463407479E-04
(PID.TID 0000.0001) %MON g__dynstat_g_uvel_mean       =  -4.9764402586645E-09
(PID.TID 0000.0001) %MON g__dynstat_g_uvel_sd         =   1.1223583700853E-06
(PID.TID 0000.0001) %MON g__dynstat_g_uvel_del2       =   7.3873225788711E-08
(PID.TID 0000.0001) %MON g__dynstat_g_vvel_max        =   1.1289482967722E-05
(PID.TID 0000.0001) %MON g__dynstat_g_vvel_min        =  -1.0938003052596E-04
(PID.TID 0000.0001) %MON g__dynstat_g_vvel_mean       =  -6.5233027307364E-09
(PID.TID 0000.0001) %MON g__dynstat_g_vvel_sd         =   5.0519122268552E-07
(PID.TID 0000.0001) %MON g__dynstat_g_vvel_del2       =   2.3894806500173E-08
(PID.TID 0000.0001) %MON g__dynstat_g_wvel_max        =   1.0776797207237E-06
(PID.TID 0000.0001) %MON g__dynstat_g_wvel_min        =  -4.1354766614679E-07
(PID.TID 0000.0001) %MON g__dynstat_g_wvel_mean       =   4.7423295913758E-28
(PID.TID 0000.0001) %MON g__dynstat_g_wvel_sd         =   3.1505524633409E-09
(PID.TID 0000.0001) %MON g__dynstat_g_wvel_del2       =   2.8617107120231E-10
(PID.TID 0000.0001) %MON g__dynstat_g_theta_max       =   9.7273808283183E-01
(PID.TID 0000.0001) %MON g__dynstat_g_theta_min       =  -3.1078066083354E-04
(PID.TID 0000.0001) %MON g__dynstat_g_theta_mean      =   2.0344395994980E-06
(PID.TID 0000.0001) %MON g__dynstat_g_theta_sd        =   1.3962722833754E-03
(PID.TID 0000.0001) %MON g__dynstat_g_theta_del2      =   4.9683784294222E-05
(PID.TID 0000.0001) %MON g__dynstat_g_salt_max        =   3.6453320540692E-04
(PID.TID 0000.0001) %MON g__dynstat_g_salt_min        =  -5.0732074451100E-04
(PID.TID 0000.0001) %MON g__dynstat_g_salt_mean       =  -1.3166928465509E-10
(PID.TID 0000.0001) %MON g__dynstat_g_salt_sd         =   1.1588180696257E-06
(PID.TID 0000.0001) %MON g__dynstat_g_salt_del2       =   8.7469815553347E-08
(PID.TID 0000.0001) %MON g__dynstat_g_sst_max         =   9.7273808283183E-01
(PID.TID 0000.0001) %MON g__dynstat_g_sst_min         =  -1.5302875523100E-08
(PID.TID 0000.0001) %MON g__dynstat_g_sst_mean        =   1.5550140186242E-04
(PID.TID 0000.0001) %MON g__dynstat_g_sst_sd          =   1.2224424647182E-02
(PID.TID 0000.0001) %MON g__dynstat_g_sst_del2        =   6.2778584449224E-04
(PID.TID 0000.0001) %MON g__dynstat_g_sss_max         =   2.8641040973401E-04
(PID.TID 0000.0001) %MON g__dynstat_g_sss_min         =  -5.0732074451100E-04
(PID.TID 0000.0001) %MON g__dynstat_g_sss_mean        =  -3.7986262262567E-09
(PID.TID 0000.0001) %MON g__dynstat_g_sss_sd          =   7.8080304417169E-06
(PID.TID 0000.0001) %MON g__dynstat_g_sss_del2        =   6.4204998444986E-07
(PID.TID 0000.0001) %MON g__extforcing_g_qnet_max     =   0.0000000000000E+00
(PID.TID 0000.0001) %MON g__extforcing_g_qnet_min     =   0.0000000000000E+00
(PID.TID 0000.0001) %MON g__extforcing_g_qnet_mean    =   0.0000000000000E+00
(PID.TID 0000.0001) %MON g__extforcing_g_qnet_sd      =   0.0000000000000E+00
(PID.TID 0000.0001) %MON g__extforcing_g_qnet_del2    =   0.0000000000000E+00
(PID.TID 0000.0001) %MON g__extforcing_g_empmr_max    =   0.0000000000000E+00
(PID.TID 0000.0001) %MON g__extforcing_g_empmr_min    =   0.0000000000000E+00
(PID.TID 0000.0001) %MON g__extforcing_g_empmr_mean   =   0.0000000000000E+00
(PID.TID 0000.0001) %MON g__extforcing_g_empmr_sd     =   0.0000000000000E+00
(PID.TID 0000.0001) %MON g__extforcing_g_empmr_del2   =   0.0000000000000E+00
(PID.TID 0000.0001) %MON g__extforcing_g_fu_max       =   0.0000000000000E+00
(PID.TID 0000.0001) %MON g__extforcing_g_fu_min       =   0.0000000000000E+00
(PID.TID 0000.0001) %MON g__extforcing_g_fu_mean      =   0.0000000000000E+00
(PID.TID 0000.0001) %MON g__extforcing_g_fu_sd        =   0.0000000000000E+00
(PID.TID 0000.0001) %MON g__extforcing_g_fu_del2      =   0.0000000000000E+00
(PID.TID 0000.0001) %MON g__extforcing_g_fv_max       =   0.0000000000000E+00
(PID.TID 0000.0001) %MON g__extforcing_g_fv_min       =   0.0000000000000E+00
(PID.TID 0000.0001) %MON g__extforcing_g_fv_mean      =   0.0000000000000E+00
(PID.TID 0000.0001) %MON g__extforcing_g_fv_sd        =   0.0000000000000E+00
(PID.TID 0000.0001) %MON g__extforcing_g_fv_del2      =   0.0000000000000E+00
(PID.TID 0000.0001) %MON g__g_vcfl_g_uvel_max         =   6.8347755244320E-05
(PID.TID 0000.0001) %MON g__g_vcfl_g_vvel_max         =   1.0625392843205E-05
(PID.TID 0000.0001) %MON g__g_vcfl_g_wvel_max         =   1.6434962393845E-03
(PID.TID 0000.0001) %MON g__g_vcfl_g_W_hf_max         =   1.8622305574105E-03
(PID.TID 0000.0001) // =======================================================
(PID.TID 0000.0001) // End MONITOR dynamic field statistics
(PID.TID 0000.0001) // =======================================================
 cg2d: Sum(rhs),rhsMax =  -5.53284997852541E-14  1.46097386570252E-02
 cg2d: Sum(rhs),rhsMax =   8.00089161590023E-14  6.32564766002462E+00
(PID.TID 0000.0001) // =======================================================
(PID.TID 0000.0001) // Begin MONITOR dynamic field statistics
(PID.TID 0000.0001) // =======================================================
(PID.TID 0000.0001) %MON g__time_tsnumber             =                     3
(PID.TID 0000.0001) %MON g__time_secondsf             =   1.2960000000000E+05
(PID.TID 0000.0001) %MON g__dynstat_g_eta_max         =   3.0377559868304E-03
(PID.TID 0000.0001) %MON g__dynstat_g_eta_min         =  -1.0156939608646E-03
(PID.TID 0000.0001) %MON g__dynstat_g_eta_mean        =   9.6566013050112E-20
(PID.TID 0000.0001) %MON g__dynstat_g_eta_sd          =   4.0957202769324E-05
(PID.TID 0000.0001) %MON g__dynstat_g_eta_del2        =   2.7263058828177E-06
(PID.TID 0000.0001) %MON g__dynstat_g_uvel_max        =   2.7747388368727E-04
(PID.TID 0000.0001) %MON g__dynstat_g_uvel_min        =  -3.6769177278874E-04
(PID.TID 0000.0001) %MON g__dynstat_g_uvel_mean       =  -8.0386649854186E-09
(PID.TID 0000.0001) %MON g__dynstat_g_uvel_sd         =   1.1232373311694E-06
(PID.TID 0000.0001) %MON g__dynstat_g_uvel_del2       =   8.1889620839581E-08
(PID.TID 0000.0001) %MON g__dynstat_g_vvel_max        =   4.3050787118123E-05
(PID.TID 0000.0001) %MON g__dynstat_g_vvel_min        =  -1.1925096697183E-04
(PID.TID 0000.0001) %MON g__dynstat_g_vvel_mean       =  -1.1819057179970E-08
(PID.TID 0000.0001) %MON g__dynstat_g_vvel_sd         =   6.4648380420176E-07
(PID.TID 0000.0001) %MON g__dynstat_g_vvel_del2       =   3.1297633467660E-08
(PID.TID 0000.0001) %MON g__dynstat_g_wvel_max        =   7.9395011961191E-07
(PID.TID 0000.0001) %MON g__dynstat_g_wvel_min        =  -2.1404495429109E-07
(PID.TID 0000.0001) %MON g__dynstat_g_wvel_mean       =   1.1334924685555E-27
(PID.TID 0000.0001) %MON g__dynstat_g_wvel_sd         =   2.4232150988817E-09
(PID.TID 0000.0001) %MON g__dynstat_g_wvel_del2       =   2.0465446931441E-10
(PID.TID 0000.0001) %MON g__dynstat_g_theta_max       =   9.6307147618055E-01
(PID.TID 0000.0001) %MON g__dynstat_g_theta_min       =  -4.2560620742626E-04
(PID.TID 0000.0001) %MON g__dynstat_g_theta_mean      =   2.0370159858102E-06
(PID.TID 0000.0001) %MON g__dynstat_g_theta_sd        =   1.3824721098225E-03
(PID.TID 0000.0001) %MON g__dynstat_g_theta_del2      =   4.9235309482797E-05
(PID.TID 0000.0001) %MON g__dynstat_g_salt_max        =   5.6604708105384E-04
(PID.TID 0000.0001) %MON g__dynstat_g_salt_min        =  -7.2423986725552E-04
(PID.TID 0000.0001) %MON g__dynstat_g_salt_mean       =  -3.7522495735068E-10
(PID.TID 0000.0001) %MON g__dynstat_g_salt_sd         =   1.7233810812610E-06
(PID.TID 0000.0001) %MON g__dynstat_g_salt_del2       =   1.3041089017760E-07
(PID.TID 0000.0001) %MON g__dynstat_g_sst_max         =   9.6307147618055E-01
(PID.TID 0000.0001) %MON g__dynstat_g_sst_min         =  -3.2522549779090E-08
(PID.TID 0000.0001) %MON g__dynstat_g_sst_mean        =   1.5492793885105E-04
(PID.TID 0000.0001) %MON g__dynstat_g_sst_sd          =   1.2103418750183E-02
(PID.TID 0000.0001) %MON g__dynstat_g_sst_del2        =   6.2028473048598E-04
(PID.TID 0000.0001) %MON g__dynstat_g_sss_max         =   4.4875802167166E-04
(PID.TID 0000.0001) %MON g__dynstat_g_sss_min         =  -7.2423986725552E-04
(PID.TID 0000.0001) %MON g__dynstat_g_sss_mean        =  -7.5369263302243E-09
(PID.TID 0000.0001) %MON g__dynstat_g_sss_sd          =   1.1417508423378E-05
(PID.TID 0000.0001) %MON g__dynstat_g_sss_del2        =   9.5574709954727E-07
(PID.TID 0000.0001) %MON g__extforcing_g_qnet_max     =   0.0000000000000E+00
(PID.TID 0000.0001) %MON g__extforcing_g_qnet_min     =   0.0000000000000E+00
(PID.TID 0000.0001) %MON g__extforcing_g_qnet_mean    =   0.0000000000000E+00
(PID.TID 0000.0001) %MON g__extforcing_g_qnet_sd      =   0.0000000000000E+00
(PID.TID 0000.0001) %MON g__extforcing_g_qnet_del2    =   0.0000000000000E+00
(PID.TID 0000.0001) %MON g__extforcing_g_empmr_max    =   0.0000000000000E+00
(PID.TID 0000.0001) %MON g__extforcing_g_empmr_min    =   0.0000000000000E+00
(PID.TID 0000.0001) %MON g__extforcing_g_empmr_mean   =   0.0000000000000E+00
(PID.TID 0000.0001) %MON g__extforcing_g_empmr_sd     =   0.0000000000000E+00
(PID.TID 0000.0001) %MON g__extforcing_g_empmr_del2   =   0.0000000000000E+00
(PID.TID 0000.0001) %MON g__extforcing_g_fu_max       =   0.0000000000000E+00
(PID.TID 0000.0001) %MON g__extforcing_g_fu_min       =   0.0000000000000E+00
(PID.TID 0000.0001) %MON g__extforcing_g_fu_mean      =   0.0000000000000E+00
(PID.TID 0000.0001) %MON g__extforcing_g_fu_sd        =   0.0000000000000E+00
(PID.TID 0000.0001) %MON g__extforcing_g_fu_del2      =   0.0000000000000E+00
(PID.TID 0000.0001) %MON g__extforcing_g_fv_max       =   0.0000000000000E+00
(PID.TID 0000.0001) %MON g__extforcing_g_fv_min       =   0.0000000000000E+00
(PID.TID 0000.0001) %MON g__extforcing_g_fv_mean      =   0.0000000000000E+00
(PID.TID 0000.0001) %MON g__extforcing_g_fv_sd        =   0.0000000000000E+00
(PID.TID 0000.0001) %MON g__extforcing_g_fv_del2      =   0.0000000000000E+00
(PID.TID 0000.0001) %MON g__g_vcfl_g_uvel_max         =   1.2958442112111E-04
(PID.TID 0000.0001) %MON g__g_vcfl_g_vvel_max         =   1.1584275163528E-05
(PID.TID 0000.0001) %MON g__g_vcfl_g_wvel_max         =   9.0772728652376E-04
(PID.TID 0000.0001) %MON g__g_vcfl_g_W_hf_max         =   1.3719458066894E-03
(PID.TID 0000.0001) // =======================================================
(PID.TID 0000.0001) // End MONITOR dynamic field statistics
(PID.TID 0000.0001) // =======================================================
 cg2d: Sum(rhs),rhsMax =  -1.00320456518429E-13  1.51157831830026E-02
 cg2d: Sum(rhs),rhsMax =   5.81167058921750E-14  6.76202107413719E+00
(PID.TID 0000.0001) // =======================================================
(PID.TID 0000.0001) // Begin MONITOR dynamic field statistics
(PID.TID 0000.0001) // =======================================================
(PID.TID 0000.0001) %MON g__time_tsnumber             =                     4
(PID.TID 0000.0001) %MON g__time_secondsf             =   1.7280000000000E+05
(PID.TID 0000.0001) %MON g__dynstat_g_eta_max         =   3.2471579671343E-03
(PID.TID 0000.0001) %MON g__dynstat_g_eta_min         =  -8.0002226263332E-04
(PID.TID 0000.0001) %MON g__dynstat_g_eta_mean        =   2.0405718988342E-19
(PID.TID 0000.0001) %MON g__dynstat_g_eta_sd          =   4.2413286721079E-05
(PID.TID 0000.0001) %MON g__dynstat_g_eta_del2        =   2.6404972537268E-06
(PID.TID 0000.0001) %MON g__dynstat_g_uvel_max        =   3.8805000406349E-04
(PID.TID 0000.0001) %MON g__dynstat_g_uvel_min        =  -5.2763376649212E-04
(PID.TID 0000.0001) %MON g__dynstat_g_uvel_mean       =  -9.8615775330762E-09
(PID.TID 0000.0001) %MON g__dynstat_g_uvel_sd         =   1.2395649278020E-06
(PID.TID 0000.0001) %MON g__dynstat_g_uvel_del2       =   8.8328477691832E-08
(PID.TID 0000.0001) %MON g__dynstat_g_vvel_max        =   7.3392631606221E-05
(PID.TID 0000.0001) %MON g__dynstat_g_vvel_min        =  -1.1942054634094E-04
(PID.TID 0000.0001) %MON g__dynstat_g_vvel_mean       =  -1.8236206893342E-08
(PID.TID 0000.0001) %MON g__dynstat_g_vvel_sd         =   7.4549365674677E-07
(PID.TID 0000.0001) %MON g__dynstat_g_vvel_del2       =   3.5643851369812E-08
(PID.TID 0000.0001) %MON g__dynstat_g_wvel_max        =   5.5733906093787E-07
(PID.TID 0000.0001) %MON g__dynstat_g_wvel_min        =  -4.5708833424802E-08
(PID.TID 0000.0001) %MON g__dynstat_g_wvel_mean       =  -1.4467717907143E-27
(PID.TID 0000.0001) %MON g__dynstat_g_wvel_sd         =   2.1040461540800E-09
(PID.TID 0000.0001) %MON g__dynstat_g_wvel_del2       =   1.6389160027006E-10
(PID.TID 0000.0001) %MON g__dynstat_g_theta_max       =   9.5684467816196E-01
(PID.TID 0000.0001) %MON g__dynstat_g_theta_min       =  -5.3349950799333E-04
(PID.TID 0000.0001) %MON g__dynstat_g_theta_mean      =   2.0534548867779E-06
(PID.TID 0000.0001) %MON g__dynstat_g_theta_sd        =   1.3736867484118E-03
(PID.TID 0000.0001) %MON g__dynstat_g_theta_del2      =   4.9083452691931E-05
(PID.TID 0000.0001) %MON g__dynstat_g_salt_max        =   7.0800790027449E-04
(PID.TID 0000.0001) %MON g__dynstat_g_salt_min        =  -9.9391170040949E-04
(PID.TID 0000.0001) %MON g__dynstat_g_salt_mean       =  -6.9029174354816E-10
(PID.TID 0000.0001) %MON g__dynstat_g_salt_sd         =   2.2790468058215E-06
(PID.TID 0000.0001) %MON g__dynstat_g_salt_del2       =   1.7146827158736E-07
(PID.TID 0000.0001) %MON g__dynstat_g_sst_max         =   9.5684467816196E-01
(PID.TID 0000.0001) %MON g__dynstat_g_sst_min         =  -6.5970587884635E-07
(PID.TID 0000.0001) %MON g__dynstat_g_sst_mean        =   1.5492235594503E-04
(PID.TID 0000.0001) %MON g__dynstat_g_sst_sd          =   1.2025818840651E-02
(PID.TID 0000.0001) %MON g__dynstat_g_sst_del2        =   6.1500485199786E-04
(PID.TID 0000.0001) %MON g__dynstat_g_sss_max         =   6.3386991099944E-04
(PID.TID 0000.0001) %MON g__dynstat_g_sss_min         =  -9.9391170040949E-04
(PID.TID 0000.0001) %MON g__dynstat_g_sss_mean        =  -1.0209753000905E-08
(PID.TID 0000.0001) %MON g__dynstat_g_sss_sd          =   1.5841652388417E-05
(PID.TID 0000.0001) %MON g__dynstat_g_sss_del2        =   1.3218442824083E-06
(PID.TID 0000.0001) %MON g__extforcing_g_qnet_max     =   0.0000000000000E+00
(PID.TID 0000.0001) %MON g__extforcing_g_qnet_min     =   0.0000000000000E+00
(PID.TID 0000.0001) %MON g__extforcing_g_qnet_mean    =   0.0000000000000E+00
(PID.TID 0000.0001) %MON g__extforcing_g_qnet_sd      =   0.0000000000000E+00
(PID.TID 0000.0001) %MON g__extforcing_g_qnet_del2    =   0.0000000000000E+00
(PID.TID 0000.0001) %MON g__extforcing_g_empmr_max    =   0.0000000000000E+00
(PID.TID 0000.0001) %MON g__extforcing_g_empmr_min    =   0.0000000000000E+00
(PID.TID 0000.0001) %MON g__extforcing_g_empmr_mean   =   0.0000000000000E+00
(PID.TID 0000.0001) %MON g__extforcing_g_empmr_sd     =   0.0000000000000E+00
(PID.TID 0000.0001) %MON g__extforcing_g_empmr_del2   =   0.0000000000000E+00
(PID.TID 0000.0001) %MON g__extforcing_g_fu_max       =   0.0000000000000E+00
(PID.TID 0000.0001) %MON g__extforcing_g_fu_min       =   0.0000000000000E+00
(PID.TID 0000.0001) %MON g__extforcing_g_fu_mean      =   0.0000000000000E+00
(PID.TID 0000.0001) %MON g__extforcing_g_fu_sd        =   0.0000000000000E+00
(PID.TID 0000.0001) %MON g__extforcing_g_fu_del2      =   0.0000000000000E+00
(PID.TID 0000.0001) %MON g__extforcing_g_fv_max       =   0.0000000000000E+00
(PID.TID 0000.0001) %MON g__extforcing_g_fv_min       =   0.0000000000000E+00
(PID.TID 0000.0001) %MON g__extforcing_g_fv_mean      =   0.0000000000000E+00
(PID.TID 0000.0001) %MON g__extforcing_g_fv_sd        =   0.0000000000000E+00
(PID.TID 0000.0001) %MON g__extforcing_g_fv_del2      =   0.0000000000000E+00
(PID.TID 0000.0001) %MON g__g_vcfl_g_uvel_max         =   1.8595226016687E-04
(PID.TID 0000.0001) %MON g__g_vcfl_g_vvel_max         =   1.1600748439373E-05
(PID.TID 0000.0001) %MON g__g_vcfl_g_wvel_max         =   4.0128412387527E-04
(PID.TID 0000.0001) %MON g__g_vcfl_g_W_hf_max         =   9.6308189730064E-04
(PID.TID 0000.0001) // =======================================================
(PID.TID 0000.0001) // End MONITOR dynamic field statistics
(PID.TID 0000.0001) // =======================================================
 cg2d: Sum(rhs),rhsMax =  -2.17949621867347E-13  1.47456050147015E-02
 cg2d: Sum(rhs),rhsMax =   2.58022769816790E-14  6.91128535917371E+00
(PID.TID 0000.0001) // =======================================================
(PID.TID 0000.0001) // Begin MONITOR dynamic field statistics
(PID.TID 0000.0001) // =======================================================
(PID.TID 0000.0001) %MON g__time_tsnumber             =                     5
(PID.TID 0000.0001) %MON g__time_secondsf             =   2.1600000000000E+05
(PID.TID 0000.0001) %MON g__dynstat_g_eta_max         =   3.2732122793894E-03
(PID.TID 0000.0001) %MON g__dynstat_g_eta_min         =  -4.5712587832595E-04
(PID.TID 0000.0001) %MON g__dynstat_g_eta_mean        =   1.2843713206263E-19
(PID.TID 0000.0001) %MON g__dynstat_g_eta_sd          =   4.1800313991792E-05
(PID.TID 0000.0001) %MON g__dynstat_g_eta_del2        =   2.4190590461102E-06
(PID.TID 0000.0001) %MON g__dynstat_g_uvel_max        =   4.5657236636159E-04
(PID.TID 0000.0001) %MON g__dynstat_g_uvel_min        =  -6.2752541696630E-04
(PID.TID 0000.0001) %MON g__dynstat_g_uvel_mean       =  -9.5231884832982E-09
(PID.TID 0000.0001) %MON g__dynstat_g_uvel_sd         =   1.3609393312442E-06
(PID.TID 0000.0001) %MON g__dynstat_g_uvel_del2       =   9.3653226649632E-08
(PID.TID 0000.0001) %MON g__dynstat_g_vvel_max        =   9.8137141689839E-05
(PID.TID 0000.0001) %MON g__dynstat_g_vvel_min        =  -1.1705464269344E-04
(PID.TID 0000.0001) %MON g__dynstat_g_vvel_mean       =  -2.5047161315194E-08
(PID.TID 0000.0001) %MON g__dynstat_g_vvel_sd         =   8.0193007083497E-07
(PID.TID 0000.0001) %MON g__dynstat_g_vvel_del2       =   3.8134603057140E-08
(PID.TID 0000.0001) %MON g__dynstat_g_wvel_max        =   4.7637923328439E-07
(PID.TID 0000.0001) %MON g__dynstat_g_wvel_min        =  -2.0808542595517E-08
(PID.TID 0000.0001) %MON g__dynstat_g_wvel_mean       =   9.5936899223552E-28
(PID.TID 0000.0001) %MON g__dynstat_g_wvel_sd         =   2.0184273517266E-09
(PID.TID 0000.0001) %MON g__dynstat_g_wvel_del2       =   1.6606511449257E-10
(PID.TID 0000.0001) %MON g__dynstat_g_theta_max       =   9.5436789690771E-01
(PID.TID 0000.0001) %MON g__dynstat_g_theta_min       =  -5.9905038923133E-04
(PID.TID 0000.0001) %MON g__dynstat_g_theta_mean      =   2.0863207901101E-06
(PID.TID 0000.0001) %MON g__dynstat_g_theta_sd        =   1.3704401568603E-03
(PID.TID 0000.0001) %MON g__dynstat_g_theta_del2      =   4.9237799575212E-05
(PID.TID 0000.0001) %MON g__dynstat_g_salt_max        =   8.2061529582205E-04
(PID.TID 0000.0001) %MON g__dynstat_g_salt_min        =  -1.2915138683173E-03
(PID.TID 0000.0001) %MON g__dynstat_g_salt_mean       =  -1.0196076754632E-09
(PID.TID 0000.0001) %MON g__dynstat_g_salt_sd         =   2.8379028800701E-06
(PID.TID 0000.0001) %MON g__dynstat_g_salt_del2       =   2.1195951914062E-07
(PID.TID 0000.0001) %MON g__dynstat_g_sst_max         =   9.5436789690771E-01
(PID.TID 0000.0001) %MON g__dynstat_g_sst_min         =  -9.0481915803071E-07
(PID.TID 0000.0001) %MON g__dynstat_g_sst_mean        =   1.5557054252754E-04
(PID.TID 0000.0001) %MON g__dynstat_g_sst_sd          =   1.1995544760130E-02
(PID.TID 0000.0001) %MON g__dynstat_g_sst_del2        =   6.1210225051472E-04
(PID.TID 0000.0001) %MON g__dynstat_g_sss_max         =   8.2061529582205E-04
(PID.TID 0000.0001) %MON g__dynstat_g_sss_min         =  -1.2915138683173E-03
(PID.TID 0000.0001) %MON g__dynstat_g_sss_mean        =  -1.0632688211507E-08
(PID.TID 0000.0001) %MON g__dynstat_g_sss_sd          =   2.0630810292271E-05
(PID.TID 0000.0001) %MON g__dynstat_g_sss_del2        =   1.7085301869388E-06
(PID.TID 0000.0001) %MON g__extforcing_g_qnet_max     =   0.0000000000000E+00
(PID.TID 0000.0001) %MON g__extforcing_g_qnet_min     =   0.0000000000000E+00
(PID.TID 0000.0001) %MON g__extforcing_g_qnet_mean    =   0.0000000000000E+00
(PID.TID 0000.0001) %MON g__extforcing_g_qnet_sd      =   0.0000000000000E+00
(PID.TID 0000.0001) %MON g__extforcing_g_qnet_del2    =   0.0000000000000E+00
(PID.TID 0000.0001) %MON g__extforcing_g_empmr_max    =   0.0000000000000E+00
(PID.TID 0000.0001) %MON g__extforcing_g_empmr_min    =   0.0000000000000E+00
(PID.TID 0000.0001) %MON g__extforcing_g_empmr_mean   =   0.0000000000000E+00
(PID.TID 0000.0001) %MON g__extforcing_g_empmr_sd     =   0.0000000000000E+00
(PID.TID 0000.0001) %MON g__extforcing_g_empmr_del2   =   0.0000000000000E+00
(PID.TID 0000.0001) %MON g__extforcing_g_fu_max       =   0.0000000000000E+00
(PID.TID 0000.0001) %MON g__extforcing_g_fu_min       =   0.0000000000000E+00
(PID.TID 0000.0001) %MON g__extforcing_g_fu_mean      =   0.0000000000000E+00
(PID.TID 0000.0001) %MON g__extforcing_g_fu_sd        =   0.0000000000000E+00
(PID.TID 0000.0001) %MON g__extforcing_g_fu_del2      =   0.0000000000000E+00
(PID.TID 0000.0001) %MON g__extforcing_g_fv_max       =   0.0000000000000E+00
(PID.TID 0000.0001) %MON g__extforcing_g_fv_min       =   0.0000000000000E+00
(PID.TID 0000.0001) %MON g__extforcing_g_fv_mean      =   0.0000000000000E+00
(PID.TID 0000.0001) %MON g__extforcing_g_fv_sd        =   0.0000000000000E+00
(PID.TID 0000.0001) %MON g__extforcing_g_fv_del2      =   0.0000000000000E+00
(PID.TID 0000.0001) %MON g__g_vcfl_g_uvel_max         =   2.2115675115494E-04
(PID.TID 0000.0001) %MON g__g_vcfl_g_vvel_max         =   1.1370919872286E-05
(PID.TID 0000.0001) %MON g__g_vcfl_g_wvel_max         =   4.9377079340263E-04
(PID.TID 0000.0001) %MON g__g_vcfl_g_W_hf_max         =   8.2318331511543E-04
(PID.TID 0000.0001) // =======================================================
(PID.TID 0000.0001) // End MONITOR dynamic field statistics
(PID.TID 0000.0001) // =======================================================
 cg2d: Sum(rhs),rhsMax =  -1.39267346139980E-13  1.44575480717669E-02
 cg2d: Sum(rhs),rhsMax =   7.92421683826205E-14  6.96038704691243E+00
(PID.TID 0000.0001) // =======================================================
(PID.TID 0000.0001) // Begin MONITOR dynamic field statistics
(PID.TID 0000.0001) // =======================================================
(PID.TID 0000.0001) %MON g__time_tsnumber             =                     6
(PID.TID 0000.0001) %MON g__time_secondsf             =   2.5920000000000E+05
(PID.TID 0000.0001) %MON g__dynstat_g_eta_max         =   3.2972922872629E-03
(PID.TID 0000.0001) %MON g__dynstat_g_eta_min         =  -1.2870254431444E-04
(PID.TID 0000.0001) %MON g__dynstat_g_eta_mean        =   2.3193699599589E-20
(PID.TID 0000.0001) %MON g__dynstat_g_eta_sd          =   4.1766378865070E-05
(PID.TID 0000.0001) %MON g__dynstat_g_eta_del2        =   2.2934614250860E-06
(PID.TID 0000.0001) %MON g__dynstat_g_uvel_max        =   4.9526065531425E-04
(PID.TID 0000.0001) %MON g__dynstat_g_uvel_min        =  -6.7405719318857E-04
(PID.TID 0000.0001) %MON g__dynstat_g_uvel_mean       =  -6.7491889923452E-09
(PID.TID 0000.0001) %MON g__dynstat_g_uvel_sd         =   1.4295123500348E-06
(PID.TID 0000.0001) %MON g__dynstat_g_uvel_del2       =   9.7677075191193E-08
(PID.TID 0000.0001) %MON g__dynstat_g_vvel_max        =   1.1841328460393E-04
(PID.TID 0000.0001) %MON g__dynstat_g_vvel_min        =  -1.1403826452259E-04
(PID.TID 0000.0001) %MON g__dynstat_g_vvel_mean       =  -3.1410400853960E-08
(PID.TID 0000.0001) %MON g__dynstat_g_vvel_sd         =   8.2215639299760E-07
(PID.TID 0000.0001) %MON g__dynstat_g_vvel_del2       =   3.9724187359903E-08
(PID.TID 0000.0001) %MON g__dynstat_g_wvel_max        =   5.1205871461422E-07
(PID.TID 0000.0001) %MON g__dynstat_g_wvel_min        =  -8.1898402945928E-08
(PID.TID 0000.0001) %MON g__dynstat_g_wvel_mean       =  -1.5543756680873E-27
(PID.TID 0000.0001) %MON g__dynstat_g_wvel_sd         =   1.9117138691953E-09
(PID.TID 0000.0001) %MON g__dynstat_g_wvel_del2       =   1.7414433418012E-10
(PID.TID 0000.0001) %MON g__dynstat_g_theta_max       =   9.5571872704056E-01
(PID.TID 0000.0001) %MON g__dynstat_g_theta_min       =  -5.8404774822769E-04
(PID.TID 0000.0001) %MON g__dynstat_g_theta_mean      =   2.1373686196365E-06
(PID.TID 0000.0001) %MON g__dynstat_g_theta_sd        =   1.3729634836865E-03
(PID.TID 0000.0001) %MON g__dynstat_g_theta_del2      =   4.9705354098510E-05
(PID.TID 0000.0001) %MON g__dynstat_g_salt_max        =   1.0017226182742E-03
(PID.TID 0000.0001) %MON g__dynstat_g_salt_min        =  -1.5965123250890E-03
(PID.TID 0000.0001) %MON g__dynstat_g_salt_mean       =  -1.3102675806711E-09
(PID.TID 0000.0001) %MON g__dynstat_g_salt_sd         =   3.4034661674527E-06
(PID.TID 0000.0001) %MON g__dynstat_g_salt_del2       =   2.5309499489960E-07
(PID.TID 0000.0001) %MON g__dynstat_g_sst_max         =   9.5571872704056E-01
(PID.TID 0000.0001) %MON g__dynstat_g_sst_min         =  -7.4983699791357E-06
(PID.TID 0000.0001) %MON g__dynstat_g_sst_mean        =   1.5691578933912E-04
(PID.TID 0000.0001) %MON g__dynstat_g_sst_sd          =   1.2013611850115E-02
(PID.TID 0000.0001) %MON g__dynstat_g_sst_del2        =   6.1159321945840E-04
(PID.TID 0000.0001) %MON g__dynstat_g_sss_max         =   1.0017226182742E-03
(PID.TID 0000.0001) %MON g__dynstat_g_sss_min         =  -1.5965123250890E-03
(PID.TID 0000.0001) %MON g__dynstat_g_sss_mean        =  -8.2856605153057E-09
(PID.TID 0000.0001) %MON g__dynstat_g_sss_sd          =   2.5472274171507E-05
(PID.TID 0000.0001) %MON g__dynstat_g_sss_del2        =   2.0989734867676E-06
(PID.TID 0000.0001) %MON g__extforcing_g_qnet_max     =   0.0000000000000E+00
(PID.TID 0000.0001) %MON g__extforcing_g_qnet_min     =   0.0000000000000E+00
(PID.TID 0000.0001) %MON g__extforcing_g_qnet_mean    =   0.0000000000000E+00
(PID.TID 0000.0001) %MON g__extforcing_g_qnet_sd      =   0.0000000000000E+00
(PID.TID 0000.0001) %MON g__extforcing_g_qnet_del2    =   0.0000000000000E+00
(PID.TID 0000.0001) %MON g__extforcing_g_empmr_max    =   0.0000000000000E+00
(PID.TID 0000.0001) %MON g__extforcing_g_empmr_min    =   0.0000000000000E+00
(PID.TID 0000.0001) %MON g__extforcing_g_empmr_mean   =   0.0000000000000E+00
(PID.TID 0000.0001) %MON g__extforcing_g_empmr_sd     =   0.0000000000000E+00
(PID.TID 0000.0001) %MON g__extforcing_g_empmr_del2   =   0.0000000000000E+00
(PID.TID 0000.0001) %MON g__extforcing_g_fu_max       =   0.0000000000000E+00
(PID.TID 0000.0001) %MON g__extforcing_g_fu_min       =   0.0000000000000E+00
(PID.TID 0000.0001) %MON g__extforcing_g_fu_mean      =   0.0000000000000E+00
(PID.TID 0000.0001) %MON g__extforcing_g_fu_sd        =   0.0000000000000E+00
(PID.TID 0000.0001) %MON g__extforcing_g_fu_del2      =   0.0000000000000E+00
(PID.TID 0000.0001) %MON g__extforcing_g_fv_max       =   0.0000000000000E+00
(PID.TID 0000.0001) %MON g__extforcing_g_fv_min       =   0.0000000000000E+00
(PID.TID 0000.0001) %MON g__extforcing_g_fv_mean      =   0.0000000000000E+00
(PID.TID 0000.0001) %MON g__extforcing_g_fv_sd        =   0.0000000000000E+00
(PID.TID 0000.0001) %MON g__extforcing_g_fv_del2      =   0.0000000000000E+00
(PID.TID 0000.0001) %MON g__g_vcfl_g_uvel_max         =   2.3755579440730E-04
(PID.TID 0000.0001) %MON g__g_vcfl_g_vvel_max         =   1.1502901038891E-05
(PID.TID 0000.0001) %MON g__g_vcfl_g_wvel_max         =   4.7292960097657E-04
(PID.TID 0000.0001) %MON g__g_vcfl_g_W_hf_max         =   8.8483745885338E-04
(PID.TID 0000.0001) // =======================================================
(PID.TID 0000.0001) // End MONITOR dynamic field statistics
(PID.TID 0000.0001) // =======================================================
 cg2d: Sum(rhs),rhsMax =  -2.51083439436411E-14  1.46067087223852E-02
 cg2d: Sum(rhs),rhsMax =   4.38633504518116E-14  7.26221759046284E+00
(PID.TID 0000.0001) // =======================================================
(PID.TID 0000.0001) // Begin MONITOR dynamic field statistics
(PID.TID 0000.0001) // =======================================================
(PID.TID 0000.0001) %MON g__time_tsnumber             =                     7
(PID.TID 0000.0001) %MON g__time_secondsf             =   3.0240000000000E+05
(PID.TID 0000.0001) %MON g__dynstat_g_eta_max         =   3.3889420832507E-03
(PID.TID 0000.0001) %MON g__dynstat_g_eta_min         =  -1.0825682061742E-04
(PID.TID 0000.0001) %MON g__dynstat_g_eta_mean        =  -1.1944166321778E-20
(PID.TID 0000.0001) %MON g__dynstat_g_eta_sd          =   4.2963313555699E-05
(PID.TID 0000.0001) %MON g__dynstat_g_eta_del2        =   2.3418938474695E-06
(PID.TID 0000.0001) %MON g__dynstat_g_uvel_max        =   5.1881811935362E-04
(PID.TID 0000.0001) %MON g__dynstat_g_uvel_min        =  -6.8643625172782E-04
(PID.TID 0000.0001) %MON g__dynstat_g_uvel_mean       =  -1.8731963790274E-09
(PID.TID 0000.0001) %MON g__dynstat_g_uvel_sd         =   1.4618968474610E-06
(PID.TID 0000.0001) %MON g__dynstat_g_uvel_del2       =   9.9125146900862E-08
(PID.TID 0000.0001) %MON g__dynstat_g_vvel_max        =   1.3675312818500E-04
(PID.TID 0000.0001) %MON g__dynstat_g_vvel_min        =  -1.0987968115550E-04
(PID.TID 0000.0001) %MON g__dynstat_g_vvel_mean       =  -3.6658283317595E-08
(PID.TID 0000.0001) %MON g__dynstat_g_vvel_sd         =   8.1892948415432E-07
(PID.TID 0000.0001) %MON g__dynstat_g_vvel_del2       =   4.2217344564165E-08
(PID.TID 0000.0001) %MON g__dynstat_g_wvel_max        =   5.8534058289127E-07
(PID.TID 0000.0001) %MON g__dynstat_g_wvel_min        =  -1.3115290405813E-07
(PID.TID 0000.0001) %MON g__dynstat_g_wvel_mean       =   7.0371051640258E-29
(PID.TID 0000.0001) %MON g__dynstat_g_wvel_sd         =   1.8682240762157E-09
(PID.TID 0000.0001) %MON g__dynstat_g_wvel_del2       =   1.7551317135708E-10
(PID.TID 0000.0001) %MON g__dynstat_g_theta_max       =   9.6089184360807E-01
(PID.TID 0000.0001) %MON g__dynstat_g_theta_min       =  -4.5978234336891E-04
(PID.TID 0000.0001) %MON g__dynstat_g_theta_mean      =   2.2079022701285E-06
(PID.TID 0000.0001) %MON g__dynstat_g_theta_sd        =   1.3814086132301E-03
(PID.TID 0000.0001) %MON g__dynstat_g_theta_del2      =   5.0488485830134E-05
(PID.TID 0000.0001) %MON g__dynstat_g_salt_max        =   1.1811621226886E-03
(PID.TID 0000.0001) %MON g__dynstat_g_salt_min        =  -1.9029643609267E-03
(PID.TID 0000.0001) %MON g__dynstat_g_salt_mean       =  -1.5191400007708E-09
(PID.TID 0000.0001) %MON g__dynstat_g_salt_sd         =   3.9762487927497E-06
(PID.TID 0000.0001) %MON g__dynstat_g_salt_del2       =   2.9497995703435E-07
(PID.TID 0000.0001) %MON g__dynstat_g_sst_max         =   9.6089184360807E-01
(PID.TID 0000.0001) %MON g__dynstat_g_sst_min         =  -2.5139313582601E-05
(PID.TID 0000.0001) %MON g__dynstat_g_sst_mean        =   1.5897808129410E-04
(PID.TID 0000.0001) %MON g__dynstat_g_sst_sd          =   1.2080006827711E-02
(PID.TID 0000.0001) %MON g__dynstat_g_sst_del2        =   6.1344556187051E-04
(PID.TID 0000.0001) %MON g__dynstat_g_sss_max         =   1.1811621226886E-03
(PID.TID 0000.0001) %MON g__dynstat_g_sss_min         =  -1.9029643609267E-03
(PID.TID 0000.0001) %MON g__dynstat_g_sss_mean        =  -3.3236885543124E-09
(PID.TID 0000.0001) %MON g__dynstat_g_sss_sd          =   3.0295423754738E-05
(PID.TID 0000.0001) %MON g__dynstat_g_sss_del2        =   2.4877083985391E-06
(PID.TID 0000.0001) %MON g__extforcing_g_qnet_max     =   0.0000000000000E+00
(PID.TID 0000.0001) %MON g__extforcing_g_qnet_min     =   0.0000000000000E+00
(PID.TID 0000.0001) %MON g__extforcing_g_qnet_mean    =   0.0000000000000E+00
(PID.TID 0000.0001) %MON g__extforcing_g_qnet_sd      =   0.0000000000000E+00
(PID.TID 0000.0001) %MON g__extforcing_g_qnet_del2    =   0.0000000000000E+00
(PID.TID 0000.0001) %MON g__extforcing_g_empmr_max    =   0.0000000000000E+00
(PID.TID 0000.0001) %MON g__extforcing_g_empmr_min    =   0.0000000000000E+00
(PID.TID 0000.0001) %MON g__extforcing_g_empmr_mean   =   0.0000000000000E+00
(PID.TID 0000.0001) %MON g__extforcing_g_empmr_sd     =   0.0000000000000E+00
(PID.TID 0000.0001) %MON g__extforcing_g_empmr_del2   =   0.0000000000000E+00
(PID.TID 0000.0001) %MON g__extforcing_g_fu_max       =   0.0000000000000E+00
(PID.TID 0000.0001) %MON g__extforcing_g_fu_min       =   0.0000000000000E+00
(PID.TID 0000.0001) %MON g__extforcing_g_fu_mean      =   0.0000000000000E+00
(PID.TID 0000.0001) %MON g__extforcing_g_fu_sd        =   0.0000000000000E+00
(PID.TID 0000.0001) %MON g__extforcing_g_fu_del2      =   0.0000000000000E+00
(PID.TID 0000.0001) %MON g__extforcing_g_fv_max       =   0.0000000000000E+00
(PID.TID 0000.0001) %MON g__extforcing_g_fv_min       =   0.0000000000000E+00
(PID.TID 0000.0001) %MON g__extforcing_g_fv_mean      =   0.0000000000000E+00
(PID.TID 0000.0001) %MON g__extforcing_g_fv_sd        =   0.0000000000000E+00
(PID.TID 0000.0001) %MON g__extforcing_g_fv_del2      =   0.0000000000000E+00
(PID.TID 0000.0001) %MON g__g_vcfl_g_uvel_max         =   2.4191850593241E-04
(PID.TID 0000.0001) %MON g__g_vcfl_g_vvel_max         =   1.3284469774927E-05
(PID.TID 0000.0001) %MON g__g_vcfl_g_wvel_max         =   4.2144521968171E-04
(PID.TID 0000.0001) %MON g__g_vcfl_g_W_hf_max         =   1.0114685272361E-03
(PID.TID 0000.0001) // =======================================================
(PID.TID 0000.0001) // End MONITOR dynamic field statistics
(PID.TID 0000.0001) // =======================================================
 cg2d: Sum(rhs),rhsMax =   1.12552731667998E-14  1.51321351375745E-02
 cg2d: Sum(rhs),rhsMax =  -1.71390516796183E-13  7.87499194900245E+00
(PID.TID 0000.0001) // =======================================================
(PID.TID 0000.0001) // Begin MONITOR dynamic field statistics
(PID.TID 0000.0001) // =======================================================
(PID.TID 0000.0001) %MON g__time_tsnumber             =                     8
(PID.TID 0000.0001) %MON g__time_secondsf             =   3.4560000000000E+05
(PID.TID 0000.0001) %MON g__dynstat_g_eta_max         =   3.5373854104810E-03
(PID.TID 0000.0001) %MON g__dynstat_g_eta_min         =  -1.0641906500653E-04
(PID.TID 0000.0001) %MON g__dynstat_g_eta_mean        =   7.1351969845625E-20
(PID.TID 0000.0001) %MON g__dynstat_g_eta_sd          =   4.4922000061523E-05
(PID.TID 0000.0001) %MON g__dynstat_g_eta_del2        =   2.4226467719309E-06
(PID.TID 0000.0001) %MON g__dynstat_g_uvel_max        =   5.3582441540526E-04
(PID.TID 0000.0001) %MON g__dynstat_g_uvel_min        =  -6.8262404983945E-04
(PID.TID 0000.0001) %MON g__dynstat_g_uvel_mean       =   4.4265722712860E-09
(PID.TID 0000.0001) %MON g__dynstat_g_uvel_sd         =   1.4790384468701E-06
(PID.TID 0000.0001) %MON g__dynstat_g_uvel_del2       =   9.9307398523115E-08
(PID.TID 0000.0001) %MON g__dynstat_g_vvel_max        =   1.5464461314575E-04
(PID.TID 0000.0001) %MON g__dynstat_g_vvel_min        =  -1.0666071360717E-04
(PID.TID 0000.0001) %MON g__dynstat_g_vvel_mean       =  -4.0427766931605E-08
(PID.TID 0000.0001) %MON g__dynstat_g_vvel_sd         =   8.0594912852422E-07
(PID.TID 0000.0001) %MON g__dynstat_g_vvel_del2       =   4.5729925564067E-08
(PID.TID 0000.0001) %MON g__dynstat_g_wvel_max        =   6.4030715941124E-07
(PID.TID 0000.0001) %MON g__dynstat_g_wvel_min        =  -1.9085392480317E-07
(PID.TID 0000.0001) %MON g__dynstat_g_wvel_mean       =  -8.5055776086587E-27
(PID.TID 0000.0001) %MON g__dynstat_g_wvel_sd         =   1.9388196607156E-09
(PID.TID 0000.0001) %MON g__dynstat_g_wvel_del2       =   1.8390366645711E-10
(PID.TID 0000.0001) %MON g__dynstat_g_theta_max       =   9.6987697441020E-01
(PID.TID 0000.0001) %MON g__dynstat_g_theta_min       =  -2.1113505284046E-04
(PID.TID 0000.0001) %MON g__dynstat_g_theta_mean      =   2.2990284937620E-06
(PID.TID 0000.0001) %MON g__dynstat_g_theta_sd        =   1.3959598608753E-03
(PID.TID 0000.0001) %MON g__dynstat_g_theta_del2      =   5.1594808913589E-05
(PID.TID 0000.0001) %MON g__dynstat_g_salt_max        =   1.3666675276467E-03
(PID.TID 0000.0001) %MON g__dynstat_g_salt_min        =  -2.2166406236914E-03
(PID.TID 0000.0001) %MON g__dynstat_g_salt_mean       =  -1.6160079631294E-09
(PID.TID 0000.0001) %MON g__dynstat_g_salt_sd         =   4.5612448759427E-06
(PID.TID 0000.0001) %MON g__dynstat_g_salt_del2       =   3.3721651539428E-07
(PID.TID 0000.0001) %MON g__dynstat_g_sst_max         =   9.6987697441020E-01
(PID.TID 0000.0001) %MON g__dynstat_g_sst_min         =  -3.7301854608054E-05
(PID.TID 0000.0001) %MON g__dynstat_g_sst_mean        =   1.6176801625956E-04
(PID.TID 0000.0001) %MON g__dynstat_g_sst_sd          =   1.2194667343675E-02
(PID.TID 0000.0001) %MON g__dynstat_g_sst_del2        =   6.1762399011581E-04
(PID.TID 0000.0001) %MON g__dynstat_g_sss_max         =   1.3666675276467E-03
(PID.TID 0000.0001) %MON g__dynstat_g_sss_min         =  -2.2166406236914E-03
(PID.TID 0000.0001) %MON g__dynstat_g_sss_mean        =   3.5112015904437E-09
(PID.TID 0000.0001) %MON g__dynstat_g_sss_sd          =   3.5201254786795E-05
(PID.TID 0000.0001) %MON g__dynstat_g_sss_del2        =   2.8818692891932E-06
(PID.TID 0000.0001) %MON g__extforcing_g_qnet_max     =   0.0000000000000E+00
(PID.TID 0000.0001) %MON g__extforcing_g_qnet_min     =   0.0000000000000E+00
(PID.TID 0000.0001) %MON g__extforcing_g_qnet_mean    =   0.0000000000000E+00
(PID.TID 0000.0001) %MON g__extforcing_g_qnet_sd      =   0.0000000000000E+00
(PID.TID 0000.0001) %MON g__extforcing_g_qnet_del2    =   0.0000000000000E+00
(PID.TID 0000.0001) %MON g__extforcing_g_empmr_max    =   0.0000000000000E+00
(PID.TID 0000.0001) %MON g__extforcing_g_empmr_min    =   0.0000000000000E+00
(PID.TID 0000.0001) %MON g__extforcing_g_empmr_mean   =   0.0000000000000E+00
(PID.TID 0000.0001) %MON g__extforcing_g_empmr_sd     =   0.0000000000000E+00
(PID.TID 0000.0001) %MON g__extforcing_g_empmr_del2   =   0.0000000000000E+00
(PID.TID 0000.0001) %MON g__extforcing_g_fu_max       =   0.0000000000000E+00
(PID.TID 0000.0001) %MON g__extforcing_g_fu_min       =   0.0000000000000E+00
(PID.TID 0000.0001) %MON g__extforcing_g_fu_mean      =   0.0000000000000E+00
(PID.TID 0000.0001) %MON g__extforcing_g_fu_sd        =   0.0000000000000E+00
(PID.TID 0000.0001) %MON g__extforcing_g_fu_del2      =   0.0000000000000E+00
(PID.TID 0000.0001) %MON g__extforcing_g_fv_max       =   0.0000000000000E+00
(PID.TID 0000.0001) %MON g__extforcing_g_fv_min       =   0.0000000000000E+00
(PID.TID 0000.0001) %MON g__extforcing_g_fv_mean      =   0.0000000000000E+00
(PID.TID 0000.0001) %MON g__extforcing_g_fv_sd        =   0.0000000000000E+00
(PID.TID 0000.0001) %MON g__extforcing_g_fv_del2      =   0.0000000000000E+00
(PID.TID 0000.0001) %MON g__g_vcfl_g_uvel_max         =   2.4057498396249E-04
(PID.TID 0000.0001) %MON g__g_vcfl_g_vvel_max         =   1.5022484066404E-05
(PID.TID 0000.0001) %MON g__g_vcfl_g_wvel_max         =   4.6102115477609E-04
(PID.TID 0000.0001) %MON g__g_vcfl_g_W_hf_max         =   1.1064507714626E-03
(PID.TID 0000.0001) // =======================================================
(PID.TID 0000.0001) // End MONITOR dynamic field statistics
(PID.TID 0000.0001) // =======================================================
 cg2d: Sum(rhs),rhsMax =  -7.10367411279949E-14  1.58327778461433E-02
 cg2d: Sum(rhs),rhsMax =  -5.51802527282153E-14  8.21213972807561E+00
(PID.TID 0000.0001) // =======================================================
(PID.TID 0000.0001) // Begin MONITOR dynamic field statistics
(PID.TID 0000.0001) // =======================================================
(PID.TID 0000.0001) %MON g__time_tsnumber             =                     9
(PID.TID 0000.0001) %MON g__time_secondsf             =   3.8880000000000E+05
(PID.TID 0000.0001) %MON g__dynstat_g_eta_max         =   3.7040212166880E-03
(PID.TID 0000.0001) %MON g__dynstat_g_eta_min         =  -1.0813856724215E-04
(PID.TID 0000.0001) %MON g__dynstat_g_eta_mean        =   1.8434740386995E-19
(PID.TID 0000.0001) %MON g__dynstat_g_eta_sd          =   4.7024729604160E-05
(PID.TID 0000.0001) %MON g__dynstat_g_eta_del2        =   2.5091759777371E-06
(PID.TID 0000.0001) %MON g__dynstat_g_uvel_max        =   5.4835547338357E-04
(PID.TID 0000.0001) %MON g__dynstat_g_uvel_min        =  -6.7400465157843E-04
(PID.TID 0000.0001) %MON g__dynstat_g_uvel_mean       =   1.1407826352719E-08
(PID.TID 0000.0001) %MON g__dynstat_g_uvel_sd         =   1.4895977944196E-06
(PID.TID 0000.0001) %MON g__dynstat_g_uvel_del2       =   1.0132175768601E-07
(PID.TID 0000.0001) %MON g__dynstat_g_vvel_max        =   1.7194490753470E-04
(PID.TID 0000.0001) %MON g__dynstat_g_vvel_min        =  -1.0531773888434E-04
(PID.TID 0000.0001) %MON g__dynstat_g_vvel_mean       =  -4.2634537084779E-08
(PID.TID 0000.0001) %MON g__dynstat_g_vvel_sd         =   7.9366069918098E-07
(PID.TID 0000.0001) %MON g__dynstat_g_vvel_del2       =   4.8970583034875E-08
(PID.TID 0000.0001) %MON g__dynstat_g_wvel_max        =   6.5924457205805E-07
(PID.TID 0000.0001) %MON g__dynstat_g_wvel_min        =  -2.6935610665031E-07
(PID.TID 0000.0001) %MON g__dynstat_g_wvel_mean       =  -2.6999446606837E-27
(PID.TID 0000.0001) %MON g__dynstat_g_wvel_sd         =   2.0524449009521E-09
(PID.TID 0000.0001) %MON g__dynstat_g_wvel_del2       =   2.0140944718150E-10
(PID.TID 0000.0001) %MON g__dynstat_g_theta_max       =   9.8256327924950E-01
(PID.TID 0000.0001) %MON g__dynstat_g_theta_min       =  -2.3307789557868E-04
(PID.TID 0000.0001) %MON g__dynstat_g_theta_mean      =   2.4112806306819E-06
(PID.TID 0000.0001) %MON g__dynstat_g_theta_sd        =   1.4166866216156E-03
(PID.TID 0000.0001) %MON g__dynstat_g_theta_del2      =   5.3020418094327E-05
(PID.TID 0000.0001) %MON g__dynstat_g_salt_max        =   1.5640953184716E-03
(PID.TID 0000.0001) %MON g__dynstat_g_salt_min        =  -2.5477900719646E-03
(PID.TID 0000.0001) %MON g__dynstat_g_salt_mean       =  -1.5870711037367E-09
(PID.TID 0000.0001) %MON g__dynstat_g_salt_sd         =   5.1665928134800E-06
(PID.TID 0000.0001) %MON g__dynstat_g_salt_del2       =   3.7983918469726E-07
(PID.TID 0000.0001) %MON g__dynstat_g_sst_max         =   9.8256327924950E-01
(PID.TID 0000.0001) %MON g__dynstat_g_sst_min         =  -4.0851855486014E-05
(PID.TID 0000.0001) %MON g__dynstat_g_sst_mean        =   1.6526988293052E-04
(PID.TID 0000.0001) %MON g__dynstat_g_sst_sd          =   1.2356280313746E-02
(PID.TID 0000.0001) %MON g__dynstat_g_sst_del2        =   6.2404226645102E-04
(PID.TID 0000.0001) %MON g__dynstat_g_sss_max         =   1.5640953184716E-03
(PID.TID 0000.0001) %MON g__dynstat_g_sss_min         =  -2.5477900719646E-03
(PID.TID 0000.0001) %MON g__dynstat_g_sss_mean        =   1.1177900215655E-08
(PID.TID 0000.0001) %MON g__dynstat_g_sss_sd          =   4.0345281918862E-05
(PID.TID 0000.0001) %MON g__dynstat_g_sss_del2        =   3.2915983297603E-06
(PID.TID 0000.0001) %MON g__extforcing_g_qnet_max     =   0.0000000000000E+00
(PID.TID 0000.0001) %MON g__extforcing_g_qnet_min     =   0.0000000000000E+00
(PID.TID 0000.0001) %MON g__extforcing_g_qnet_mean    =   0.0000000000000E+00
(PID.TID 0000.0001) %MON g__extforcing_g_qnet_sd      =   0.0000000000000E+00
(PID.TID 0000.0001) %MON g__extforcing_g_qnet_del2    =   0.0000000000000E+00
(PID.TID 0000.0001) %MON g__extforcing_g_empmr_max    =   0.0000000000000E+00
(PID.TID 0000.0001) %MON g__extforcing_g_empmr_min    =   0.0000000000000E+00
(PID.TID 0000.0001) %MON g__extforcing_g_empmr_mean   =   0.0000000000000E+00
(PID.TID 0000.0001) %MON g__extforcing_g_empmr_sd     =   0.0000000000000E+00
(PID.TID 0000.0001) %MON g__extforcing_g_empmr_del2   =   0.0000000000000E+00
(PID.TID 0000.0001) %MON g__extforcing_g_fu_max       =   0.0000000000000E+00
(PID.TID 0000.0001) %MON g__extforcing_g_fu_min       =   0.0000000000000E+00
(PID.TID 0000.0001) %MON g__extforcing_g_fu_mean      =   0.0000000000000E+00
(PID.TID 0000.0001) %MON g__extforcing_g_fu_sd        =   0.0000000000000E+00
(PID.TID 0000.0001) %MON g__extforcing_g_fu_del2      =   0.0000000000000E+00
(PID.TID 0000.0001) %MON g__extforcing_g_fv_max       =   0.0000000000000E+00
(PID.TID 0000.0001) %MON g__extforcing_g_fv_min       =   0.0000000000000E+00
(PID.TID 0000.0001) %MON g__extforcing_g_fv_mean      =   0.0000000000000E+00
(PID.TID 0000.0001) %MON g__extforcing_g_fv_sd        =   0.0000000000000E+00
(PID.TID 0000.0001) %MON g__extforcing_g_fv_del2      =   0.0000000000000E+00
(PID.TID 0000.0001) %MON g__g_vcfl_g_uvel_max         =   2.3753727733774E-04
(PID.TID 0000.0001) %MON g__g_vcfl_g_vvel_max         =   1.6703068934609E-05
(PID.TID 0000.0001) %MON g__g_vcfl_g_wvel_max         =   4.7465609188180E-04
(PID.TID 0000.0001) %MON g__g_vcfl_g_W_hf_max         =   1.1391746205163E-03
(PID.TID 0000.0001) // =======================================================
(PID.TID 0000.0001) // End MONITOR dynamic field statistics
(PID.TID 0000.0001) // =======================================================
 cg2d: Sum(rhs),rhsMax =  -1.75259302890469E-13  1.65489440338897E-02
 cg2d: Sum(rhs),rhsMax =  -3.50788842418126E-13  8.31512136376633E+00
(PID.TID 0000.0001) // =======================================================
(PID.TID 0000.0001) // Begin MONITOR dynamic field statistics
(PID.TID 0000.0001) // =======================================================
(PID.TID 0000.0001) %MON g__time_tsnumber             =                    10
(PID.TID 0000.0001) %MON g__time_secondsf             =   4.3200000000000E+05
(PID.TID 0000.0001) %MON g__dynstat_g_eta_max         =   3.8586921830332E-03
(PID.TID 0000.0001) %MON g__dynstat_g_eta_min         =  -1.2023009091381E-04
(PID.TID 0000.0001) %MON g__dynstat_g_eta_mean        =   3.3149291171631E-19
(PID.TID 0000.0001) %MON g__dynstat_g_eta_sd          =   4.8910667584567E-05
(PID.TID 0000.0001) %MON g__dynstat_g_eta_del2        =   2.5871596783087E-06
(PID.TID 0000.0001) %MON g__dynstat_g_uvel_max        =   5.5514933896798E-04
(PID.TID 0000.0001) %MON g__dynstat_g_uvel_min        =  -6.6584790877400E-04
(PID.TID 0000.0001) %MON g__dynstat_g_uvel_mean       =   1.8435545072439E-08
(PID.TID 0000.0001) %MON g__dynstat_g_uvel_sd         =   1.4963559665035E-06
(PID.TID 0000.0001) %MON g__dynstat_g_uvel_del2       =   1.0299052560446E-07
(PID.TID 0000.0001) %MON g__dynstat_g_vvel_max        =   1.8743994545351E-04
(PID.TID 0000.0001) %MON g__dynstat_g_vvel_min        =  -1.0657693070705E-04
(PID.TID 0000.0001) %MON g__dynstat_g_vvel_mean       =  -4.3374154901240E-08
(PID.TID 0000.0001) %MON g__dynstat_g_vvel_sd         =   7.8783783579223E-07
(PID.TID 0000.0001) %MON g__dynstat_g_vvel_del2       =   5.1104605416563E-08
(PID.TID 0000.0001) %MON g__dynstat_g_wvel_max        =   6.5067136198245E-07
(PID.TID 0000.0001) %MON g__dynstat_g_wvel_min        =  -3.2576488756596E-07
(PID.TID 0000.0001) %MON g__dynstat_g_wvel_mean       =  -1.0405711540658E-26
(PID.TID 0000.0001) %MON g__dynstat_g_wvel_sd         =   2.1476321215937E-09
(PID.TID 0000.0001) %MON g__dynstat_g_wvel_del2       =   2.1292224103001E-10
(PID.TID 0000.0001) %MON g__dynstat_g_theta_max       =   9.9854423925836E-01
(PID.TID 0000.0001) %MON g__dynstat_g_theta_min       =  -3.2403097805513E-04
(PID.TID 0000.0001) %MON g__dynstat_g_theta_mean      =   2.5437462083114E-06
(PID.TID 0000.0001) %MON g__dynstat_g_theta_sd        =   1.4432260005993E-03
(PID.TID 0000.0001) %MON g__dynstat_g_theta_del2      =   5.4741463743468E-05
(PID.TID 0000.0001) %MON g__dynstat_g_salt_max        =   1.7750583477679E-03
(PID.TID 0000.0001) %MON g__dynstat_g_salt_min        =  -2.9048344523594E-03
(PID.TID 0000.0001) %MON g__dynstat_g_salt_mean       =  -1.4336339257650E-09
(PID.TID 0000.0001) %MON g__dynstat_g_salt_sd         =   5.7995761214745E-06
(PID.TID 0000.0001) %MON g__dynstat_g_salt_del2       =   4.2285273400525E-07
(PID.TID 0000.0001) %MON g__dynstat_g_sst_max         =   9.9854423925836E-01
(PID.TID 0000.0001) %MON g__dynstat_g_sst_min         =  -3.5992480614447E-05
(PID.TID 0000.0001) %MON g__dynstat_g_sst_mean        =   1.6941690189010E-04
(PID.TID 0000.0001) %MON g__dynstat_g_sst_sd          =   1.2559822297251E-02
(PID.TID 0000.0001) %MON g__dynstat_g_sst_del2        =   6.3243786977564E-04
(PID.TID 0000.0001) %MON g__dynstat_g_sss_max         =   1.7750583477679E-03
(PID.TID 0000.0001) %MON g__dynstat_g_sss_min         =  -2.9048344523594E-03
(PID.TID 0000.0001) %MON g__dynstat_g_sss_mean        =   1.9156608676469E-08
(PID.TID 0000.0001) %MON g__dynstat_g_sss_sd          =   4.5845327078532E-05
(PID.TID 0000.0001) %MON g__dynstat_g_sss_del2        =   3.7262061673478E-06
(PID.TID 0000.0001) %MON g__extforcing_g_qnet_max     =   0.0000000000000E+00
(PID.TID 0000.0001) %MON g__extforcing_g_qnet_min     =   0.0000000000000E+00
(PID.TID 0000.0001) %MON g__extforcing_g_qnet_mean    =   0.0000000000000E+00
(PID.TID 0000.0001) %MON g__extforcing_g_qnet_sd      =   0.0000000000000E+00
(PID.TID 0000.0001) %MON g__extforcing_g_qnet_del2    =   0.0000000000000E+00
(PID.TID 0000.0001) %MON g__extforcing_g_empmr_max    =   0.0000000000000E+00
(PID.TID 0000.0001) %MON g__extforcing_g_empmr_min    =   0.0000000000000E+00
(PID.TID 0000.0001) %MON g__extforcing_g_empmr_mean   =   0.0000000000000E+00
(PID.TID 0000.0001) %MON g__extforcing_g_empmr_sd     =   0.0000000000000E+00
(PID.TID 0000.0001) %MON g__extforcing_g_empmr_del2   =   0.0000000000000E+00
(PID.TID 0000.0001) %MON g__extforcing_g_fu_max       =   0.0000000000000E+00
(PID.TID 0000.0001) %MON g__extforcing_g_fu_min       =   0.0000000000000E+00
(PID.TID 0000.0001) %MON g__extforcing_g_fu_mean      =   0.0000000000000E+00
(PID.TID 0000.0001) %MON g__extforcing_g_fu_sd        =   0.0000000000000E+00
(PID.TID 0000.0001) %MON g__extforcing_g_fu_del2      =   0.0000000000000E+00
(PID.TID 0000.0001) %MON g__extforcing_g_fv_max       =   0.0000000000000E+00
(PID.TID 0000.0001) %MON g__extforcing_g_fv_min       =   0.0000000000000E+00
(PID.TID 0000.0001) %MON g__extforcing_g_fv_mean      =   0.0000000000000E+00
(PID.TID 0000.0001) %MON g__extforcing_g_fv_sd        =   0.0000000000000E+00
(PID.TID 0000.0001) %MON g__extforcing_g_fv_del2      =   0.0000000000000E+00
(PID.TID 0000.0001) %MON g__g_vcfl_g_uvel_max         =   2.3466262287776E-04
(PID.TID 0000.0001) %MON g__g_vcfl_g_vvel_max         =   1.8208287613156E-05
(PID.TID 0000.0001) %MON g__g_vcfl_g_wvel_max         =   4.6848338062737E-04
(PID.TID 0000.0001) %MON g__g_vcfl_g_W_hf_max         =   1.1243601135057E-03
(PID.TID 0000.0001) // =======================================================
(PID.TID 0000.0001) // End MONITOR dynamic field statistics
(PID.TID 0000.0001) // =======================================================
 myIter=  10
(PID.TID 0000.0001) // Model state written, timestep        10
(PID.TID 0000.0001) 
 cg2d: Sum(rhs),rhsMax =  -3.03235339800100E-13  1.72175907171764E-02
 cg2d: Sum(rhs),rhsMax =  -4.96371173330790E-13  8.25257067290290E+00
(PID.TID 0000.0001) // =======================================================
(PID.TID 0000.0001) // Begin MONITOR dynamic field statistics
(PID.TID 0000.0001) // =======================================================
(PID.TID 0000.0001) %MON g__time_tsnumber             =                    11
(PID.TID 0000.0001) %MON g__time_secondsf             =   4.7520000000000E+05
(PID.TID 0000.0001) %MON g__dynstat_g_eta_max         =   3.9915382501617E-03
(PID.TID 0000.0001) %MON g__dynstat_g_eta_min         =  -1.2877512383938E-04
(PID.TID 0000.0001) %MON g__dynstat_g_eta_mean        =   4.8403894072612E-19
(PID.TID 0000.0001) %MON g__dynstat_g_eta_sd          =   5.0507934705489E-05
(PID.TID 0000.0001) %MON g__dynstat_g_eta_del2        =   2.6666505939948E-06
(PID.TID 0000.0001) %MON g__dynstat_g_uvel_max        =   5.5467006559054E-04
(PID.TID 0000.0001) %MON g__dynstat_g_uvel_min        =  -6.5987203581790E-04
(PID.TID 0000.0001) %MON g__dynstat_g_uvel_mean       =   2.5031141710239E-08
(PID.TID 0000.0001) %MON g__dynstat_g_uvel_sd         =   1.5001388857941E-06
(PID.TID 0000.0001) %MON g__dynstat_g_uvel_del2       =   1.0453970228670E-07
(PID.TID 0000.0001) %MON g__dynstat_g_vvel_max        =   1.9968751448273E-04
(PID.TID 0000.0001) %MON g__dynstat_g_vvel_min        =  -1.1203574517120E-04
(PID.TID 0000.0001) %MON g__dynstat_g_vvel_mean       =  -4.2833115484771E-08
(PID.TID 0000.0001) %MON g__dynstat_g_vvel_sd         =   7.9037920555652E-07
(PID.TID 0000.0001) %MON g__dynstat_g_vvel_del2       =   5.2274567096011E-08
(PID.TID 0000.0001) %MON g__dynstat_g_wvel_max        =   6.3139444891890E-07
(PID.TID 0000.0001) %MON g__dynstat_g_wvel_min        =  -3.6166000950367E-07
(PID.TID 0000.0001) %MON g__dynstat_g_wvel_mean       =  -1.9964806012262E-26
(PID.TID 0000.0001) %MON g__dynstat_g_wvel_sd         =   2.2112932220563E-09
(PID.TID 0000.0001) %MON g__dynstat_g_wvel_del2       =   2.2049735831358E-10
(PID.TID 0000.0001) %MON g__dynstat_g_theta_max       =   1.0169288019920E+00
(PID.TID 0000.0001) %MON g__dynstat_g_theta_min       =  -4.1500282912968E-04
(PID.TID 0000.0001) %MON g__dynstat_g_theta_mean      =   2.6930275271764E-06
(PID.TID 0000.0001) %MON g__dynstat_g_theta_sd        =   1.4744378791128E-03
(PID.TID 0000.0001) %MON g__dynstat_g_theta_del2      =   5.6695187251134E-05
(PID.TID 0000.0001) %MON g__dynstat_g_salt_max        =   1.9967992700969E-03
(PID.TID 0000.0001) %MON g__dynstat_g_salt_min        =  -3.2906886013427E-03
(PID.TID 0000.0001) %MON g__dynstat_g_salt_mean       =  -1.1672987180775E-09
(PID.TID 0000.0001) %MON g__dynstat_g_salt_sd         =   6.4632691859177E-06
(PID.TID 0000.0001) %MON g__dynstat_g_salt_del2       =   4.6631727441469E-07
(PID.TID 0000.0001) %MON g__dynstat_g_sst_max         =   1.0169288019920E+00
(PID.TID 0000.0001) %MON g__dynstat_g_sst_min         =  -2.7839556860924E-05
(PID.TID 0000.0001) %MON g__dynstat_g_sst_mean        =   1.7404612353412E-04
(PID.TID 0000.0001) %MON g__dynstat_g_sst_sd          =   1.2794165199638E-02
(PID.TID 0000.0001) %MON g__dynstat_g_sst_del2        =   6.4226946517549E-04
(PID.TID 0000.0001) %MON g__dynstat_g_sss_max         =   1.9967992700969E-03
(PID.TID 0000.0001) %MON g__dynstat_g_sss_min         =  -3.2906886013427E-03
(PID.TID 0000.0001) %MON g__dynstat_g_sss_mean        =   2.6645269909842E-08
(PID.TID 0000.0001) %MON g__dynstat_g_sss_sd          =   5.1733458103398E-05
(PID.TID 0000.0001) %MON g__dynstat_g_sss_del2        =   4.1859004731931E-06
(PID.TID 0000.0001) %MON g__extforcing_g_qnet_max     =   0.0000000000000E+00
(PID.TID 0000.0001) %MON g__extforcing_g_qnet_min     =   0.0000000000000E+00
(PID.TID 0000.0001) %MON g__extforcing_g_qnet_mean    =   0.0000000000000E+00
(PID.TID 0000.0001) %MON g__extforcing_g_qnet_sd      =   0.0000000000000E+00
(PID.TID 0000.0001) %MON g__extforcing_g_qnet_del2    =   0.0000000000000E+00
(PID.TID 0000.0001) %MON g__extforcing_g_empmr_max    =   0.0000000000000E+00
(PID.TID 0000.0001) %MON g__extforcing_g_empmr_min    =   0.0000000000000E+00
(PID.TID 0000.0001) %MON g__extforcing_g_empmr_mean   =   0.0000000000000E+00
(PID.TID 0000.0001) %MON g__extforcing_g_empmr_sd     =   0.0000000000000E+00
(PID.TID 0000.0001) %MON g__extforcing_g_empmr_del2   =   0.0000000000000E+00
(PID.TID 0000.0001) %MON g__extforcing_g_fu_max       =   0.0000000000000E+00
(PID.TID 0000.0001) %MON g__extforcing_g_fu_min       =   0.0000000000000E+00
(PID.TID 0000.0001) %MON g__extforcing_g_fu_mean      =   0.0000000000000E+00
(PID.TID 0000.0001) %MON g__extforcing_g_fu_sd        =   0.0000000000000E+00
(PID.TID 0000.0001) %MON g__extforcing_g_fu_del2      =   0.0000000000000E+00
(PID.TID 0000.0001) %MON g__extforcing_g_fv_max       =   0.0000000000000E+00
(PID.TID 0000.0001) %MON g__extforcing_g_fv_min       =   0.0000000000000E+00
(PID.TID 0000.0001) %MON g__extforcing_g_fv_mean      =   0.0000000000000E+00
(PID.TID 0000.0001) %MON g__extforcing_g_fv_sd        =   0.0000000000000E+00
(PID.TID 0000.0001) %MON g__extforcing_g_fv_del2      =   0.0000000000000E+00
(PID.TID 0000.0001) %MON g__g_vcfl_g_uvel_max         =   2.3255656531809E-04
(PID.TID 0000.0001) %MON g__g_vcfl_g_vvel_max         =   1.9398040730649E-05
(PID.TID 0000.0001) %MON g__g_vcfl_g_wvel_max         =   4.5460400322161E-04
(PID.TID 0000.0001) %MON g__g_vcfl_g_W_hf_max         =   1.0910496077319E-03
(PID.TID 0000.0001) // =======================================================
(PID.TID 0000.0001) // End MONITOR dynamic field statistics
(PID.TID 0000.0001) // =======================================================
 cg2d: Sum(rhs),rhsMax =  -4.27675097259512E-13  1.78460848784356E-02
 cg2d: Sum(rhs),rhsMax =  -5.23452808876002E-13  8.09293762885827E+00
(PID.TID 0000.0001) // =======================================================
(PID.TID 0000.0001) // Begin MONITOR dynamic field statistics
(PID.TID 0000.0001) // =======================================================
(PID.TID 0000.0001) %MON g__time_tsnumber             =                    12
(PID.TID 0000.0001) %MON g__time_secondsf             =   5.1840000000000E+05
(PID.TID 0000.0001) %MON g__dynstat_g_eta_max         =   4.1080893352221E-03
(PID.TID 0000.0001) %MON g__dynstat_g_eta_min         =  -1.2762760321007E-04
(PID.TID 0000.0001) %MON g__dynstat_g_eta_mean        =   5.9433610322494E-19
(PID.TID 0000.0001) %MON g__dynstat_g_eta_sd          =   5.1923751721484E-05
(PID.TID 0000.0001) %MON g__dynstat_g_eta_del2        =   2.7584258797031E-06
(PID.TID 0000.0001) %MON g__dynstat_g_uvel_max        =   5.4656632481997E-04
(PID.TID 0000.0001) %MON g__dynstat_g_uvel_min        =  -6.5642737255856E-04
(PID.TID 0000.0001) %MON g__dynstat_g_uvel_mean       =   3.0853235609068E-08
(PID.TID 0000.0001) %MON g__dynstat_g_uvel_sd         =   1.5005630827145E-06
(PID.TID 0000.0001) %MON g__dynstat_g_uvel_del2       =   1.0588641084187E-07
(PID.TID 0000.0001) %MON g__dynstat_g_vvel_max        =   2.2941428963259E-04
(PID.TID 0000.0001) %MON g__dynstat_g_vvel_min        =  -1.2244745560183E-04
(PID.TID 0000.0001) %MON g__dynstat_g_vvel_mean       =  -4.1242982075293E-08
(PID.TID 0000.0001) %MON g__dynstat_g_vvel_sd         =   8.0105092345471E-07
(PID.TID 0000.0001) %MON g__dynstat_g_vvel_del2       =   5.2968831894988E-08
(PID.TID 0000.0001) %MON g__dynstat_g_wvel_max        =   6.1410324161552E-07
(PID.TID 0000.0001) %MON g__dynstat_g_wvel_min        =  -3.8125818307594E-07
(PID.TID 0000.0001) %MON g__dynstat_g_wvel_mean       =   1.6132112059823E-26
(PID.TID 0000.0001) %MON g__dynstat_g_wvel_sd         =   2.2481778957270E-09
(PID.TID 0000.0001) %MON g__dynstat_g_wvel_del2       =   2.2201422503366E-10
(PID.TID 0000.0001) %MON g__dynstat_g_theta_max       =   1.0362580820911E+00
(PID.TID 0000.0001) %MON g__dynstat_g_theta_min       =  -4.5886316402349E-04
(PID.TID 0000.0001) %MON g__dynstat_g_theta_mean      =   2.8524451071367E-06
(PID.TID 0000.0001) %MON g__dynstat_g_theta_sd        =   1.5081874054120E-03
(PID.TID 0000.0001) %MON g__dynstat_g_theta_del2      =   5.8764937898082E-05
(PID.TID 0000.0001) %MON g__dynstat_g_salt_max        =   2.2231581023120E-03
(PID.TID 0000.0001) %MON g__dynstat_g_salt_min        =  -3.7014008768998E-03
(PID.TID 0000.0001) %MON g__dynstat_g_salt_mean       =  -8.0804162076027E-10
(PID.TID 0000.0001) %MON g__dynstat_g_salt_sd         =   7.1539996594925E-06
(PID.TID 0000.0001) %MON g__dynstat_g_salt_del2       =   5.1072620372819E-07
(PID.TID 0000.0001) %MON g__dynstat_g_sst_max         =   1.0362580820911E+00
(PID.TID 0000.0001) %MON g__dynstat_g_sst_min         =  -2.4672827471719E-05
(PID.TID 0000.0001) %MON g__dynstat_g_sst_mean        =   1.7888532010873E-04
(PID.TID 0000.0001) %MON g__dynstat_g_sst_sd          =   1.3040992563798E-02
(PID.TID 0000.0001) %MON g__dynstat_g_sst_del2        =   6.5264398899259E-04
(PID.TID 0000.0001) %MON g__dynstat_g_sss_max         =   2.2231581023120E-03
(PID.TID 0000.0001) %MON g__dynstat_g_sss_min         =  -3.7014008768998E-03
(PID.TID 0000.0001) %MON g__dynstat_g_sss_mean        =   3.3184686148914E-08
(PID.TID 0000.0001) %MON g__dynstat_g_sss_sd          =   5.7943088051126E-05
(PID.TID 0000.0001) %MON g__dynstat_g_sss_del2        =   4.6688680487551E-06
(PID.TID 0000.0001) %MON g__extforcing_g_qnet_max     =   0.0000000000000E+00
(PID.TID 0000.0001) %MON g__extforcing_g_qnet_min     =   0.0000000000000E+00
(PID.TID 0000.0001) %MON g__extforcing_g_qnet_mean    =   0.0000000000000E+00
(PID.TID 0000.0001) %MON g__extforcing_g_qnet_sd      =   0.0000000000000E+00
(PID.TID 0000.0001) %MON g__extforcing_g_qnet_del2    =   0.0000000000000E+00
(PID.TID 0000.0001) %MON g__extforcing_g_empmr_max    =   0.0000000000000E+00
(PID.TID 0000.0001) %MON g__extforcing_g_empmr_min    =   0.0000000000000E+00
(PID.TID 0000.0001) %MON g__extforcing_g_empmr_mean   =   0.0000000000000E+00
(PID.TID 0000.0001) %MON g__extforcing_g_empmr_sd     =   0.0000000000000E+00
(PID.TID 0000.0001) %MON g__extforcing_g_empmr_del2   =   0.0000000000000E+00
(PID.TID 0000.0001) %MON g__extforcing_g_fu_max       =   0.0000000000000E+00
(PID.TID 0000.0001) %MON g__extforcing_g_fu_min       =   0.0000000000000E+00
(PID.TID 0000.0001) %MON g__extforcing_g_fu_mean      =   0.0000000000000E+00
(PID.TID 0000.0001) %MON g__extforcing_g_fu_sd        =   0.0000000000000E+00
(PID.TID 0000.0001) %MON g__extforcing_g_fu_del2      =   0.0000000000000E+00
(PID.TID 0000.0001) %MON g__extforcing_g_fv_max       =   0.0000000000000E+00
(PID.TID 0000.0001) %MON g__extforcing_g_fv_min       =   0.0000000000000E+00
(PID.TID 0000.0001) %MON g__extforcing_g_fv_mean      =   0.0000000000000E+00
(PID.TID 0000.0001) %MON g__extforcing_g_fv_sd        =   0.0000000000000E+00
(PID.TID 0000.0001) %MON g__extforcing_g_fv_del2      =   0.0000000000000E+00
(PID.TID 0000.0001) %MON g__g_vcfl_g_uvel_max         =   2.3134257379733E-04
(PID.TID 0000.0001) %MON g__g_vcfl_g_vvel_max         =   2.2285758556381E-05
(PID.TID 0000.0001) %MON g__g_vcfl_g_wvel_max         =   4.4215433396317E-04
(PID.TID 0000.0001) %MON g__g_vcfl_g_W_hf_max         =   1.0611704015116E-03
(PID.TID 0000.0001) // =======================================================
(PID.TID 0000.0001) // End MONITOR dynamic field statistics
(PID.TID 0000.0001) // =======================================================
 cg2d: Sum(rhs),rhsMax =  -5.06503716614103E-13  1.84611008193607E-02
 cg2d: Sum(rhs),rhsMax =  -7.37328600952658E-13  8.55637530605071E+00
(PID.TID 0000.0001) // =======================================================
(PID.TID 0000.0001) // Begin MONITOR dynamic field statistics
(PID.TID 0000.0001) // =======================================================
(PID.TID 0000.0001) %MON g__time_tsnumber             =                    13
(PID.TID 0000.0001) %MON g__time_secondsf             =   5.6160000000000E+05
(PID.TID 0000.0001) %MON g__dynstat_g_eta_max         =   4.2186197662711E-03
(PID.TID 0000.0001) %MON g__dynstat_g_eta_min         =  -1.3387179255453E-04
(PID.TID 0000.0001) %MON g__dynstat_g_eta_mean        =   6.5175155476624E-19
(PID.TID 0000.0001) %MON g__dynstat_g_eta_sd          =   5.3303962001959E-05
(PID.TID 0000.0001) %MON g__dynstat_g_eta_del2        =   2.8706657491314E-06
(PID.TID 0000.0001) %MON g__dynstat_g_uvel_max        =   5.3162111737019E-04
(PID.TID 0000.0001) %MON g__dynstat_g_uvel_min        =  -6.5544738578178E-04
(PID.TID 0000.0001) %MON g__dynstat_g_uvel_mean       =   3.5668979622424E-08
(PID.TID 0000.0001) %MON g__dynstat_g_uvel_sd         =   1.4966996065280E-06
(PID.TID 0000.0001) %MON g__dynstat_g_uvel_del2       =   1.0603570228827E-07
(PID.TID 0000.0001) %MON g__dynstat_g_vvel_max        =   2.5818734309402E-04
(PID.TID 0000.0001) %MON g__dynstat_g_vvel_min        =  -1.3788393936352E-04
(PID.TID 0000.0001) %MON g__dynstat_g_vvel_mean       =  -3.8867887037397E-08
(PID.TID 0000.0001) %MON g__dynstat_g_vvel_sd         =   8.1903556984417E-07
(PID.TID 0000.0001) %MON g__dynstat_g_vvel_del2       =   5.3394909065403E-08
(PID.TID 0000.0001) %MON g__dynstat_g_wvel_max        =   6.0298167233985E-07
(PID.TID 0000.0001) %MON g__dynstat_g_wvel_min        =  -3.8783625669813E-07
(PID.TID 0000.0001) %MON g__dynstat_g_wvel_mean       =  -5.7444130507694E-27
(PID.TID 0000.0001) %MON g__dynstat_g_wvel_sd         =   2.2595002497617E-09
(PID.TID 0000.0001) %MON g__dynstat_g_wvel_del2       =   2.2145178648779E-10
(PID.TID 0000.0001) %MON g__dynstat_g_theta_max       =   1.0545852366534E+00
(PID.TID 0000.0001) %MON g__dynstat_g_theta_min       =  -5.2242995752927E-04
(PID.TID 0000.0001) %MON g__dynstat_g_theta_mean      =   3.0119549612575E-06
(PID.TID 0000.0001) %MON g__dynstat_g_theta_sd        =   1.5413756808277E-03
(PID.TID 0000.0001) %MON g__dynstat_g_theta_del2      =   6.0784367887621E-05
(PID.TID 0000.0001) %MON g__dynstat_g_salt_max        =   2.4460736696916E-03
(PID.TID 0000.0001) %MON g__dynstat_g_salt_min        =  -4.1263629784263E-03
(PID.TID 0000.0001) %MON g__dynstat_g_salt_mean       =  -3.8198579602603E-10
(PID.TID 0000.0001) %MON g__dynstat_g_salt_sd         =   7.8605444588157E-06
(PID.TID 0000.0001) %MON g__dynstat_g_salt_del2       =   5.5510363814730E-07
(PID.TID 0000.0001) %MON g__dynstat_g_sst_max         =   1.0545852366534E+00
(PID.TID 0000.0001) %MON g__dynstat_g_sst_min         =  -2.0125670955945E-05
(PID.TID 0000.0001) %MON g__dynstat_g_sst_mean        =   1.8356179862243E-04
(PID.TID 0000.0001) %MON g__dynstat_g_sst_sd          =   1.3275756972591E-02
(PID.TID 0000.0001) %MON g__dynstat_g_sst_del2        =   6.6238031798573E-04
(PID.TID 0000.0001) %MON g__dynstat_g_sss_max         =   2.4460736696916E-03
(PID.TID 0000.0001) %MON g__dynstat_g_sss_min         =  -4.1263629784263E-03
(PID.TID 0000.0001) %MON g__dynstat_g_sss_mean        =   3.8511102625465E-08
(PID.TID 0000.0001) %MON g__dynstat_g_sss_sd          =   6.4317748164128E-05
(PID.TID 0000.0001) %MON g__dynstat_g_sss_del2        =   5.1614830630504E-06
(PID.TID 0000.0001) %MON g__extforcing_g_qnet_max     =   0.0000000000000E+00
(PID.TID 0000.0001) %MON g__extforcing_g_qnet_min     =   0.0000000000000E+00
(PID.TID 0000.0001) %MON g__extforcing_g_qnet_mean    =   0.0000000000000E+00
(PID.TID 0000.0001) %MON g__extforcing_g_qnet_sd      =   0.0000000000000E+00
(PID.TID 0000.0001) %MON g__extforcing_g_qnet_del2    =   0.0000000000000E+00
(PID.TID 0000.0001) %MON g__extforcing_g_empmr_max    =   0.0000000000000E+00
(PID.TID 0000.0001) %MON g__extforcing_g_empmr_min    =   0.0000000000000E+00
(PID.TID 0000.0001) %MON g__extforcing_g_empmr_mean   =   0.0000000000000E+00
(PID.TID 0000.0001) %MON g__extforcing_g_empmr_sd     =   0.0000000000000E+00
(PID.TID 0000.0001) %MON g__extforcing_g_empmr_del2   =   0.0000000000000E+00
(PID.TID 0000.0001) %MON g__extforcing_g_fu_max       =   0.0000000000000E+00
(PID.TID 0000.0001) %MON g__extforcing_g_fu_min       =   0.0000000000000E+00
(PID.TID 0000.0001) %MON g__extforcing_g_fu_mean      =   0.0000000000000E+00
(PID.TID 0000.0001) %MON g__extforcing_g_fu_sd        =   0.0000000000000E+00
(PID.TID 0000.0001) %MON g__extforcing_g_fu_del2      =   0.0000000000000E+00
(PID.TID 0000.0001) %MON g__extforcing_g_fv_max       =   0.0000000000000E+00
(PID.TID 0000.0001) %MON g__extforcing_g_fv_min       =   0.0000000000000E+00
(PID.TID 0000.0001) %MON g__extforcing_g_fv_mean      =   0.0000000000000E+00
(PID.TID 0000.0001) %MON g__extforcing_g_fv_sd        =   0.0000000000000E+00
(PID.TID 0000.0001) %MON g__extforcing_g_fv_del2      =   0.0000000000000E+00
(PID.TID 0000.0001) %MON g__g_vcfl_g_uvel_max         =   2.3099720023019E-04
(PID.TID 0000.0001) %MON g__g_vcfl_g_vvel_max         =   2.5080829968010E-05
(PID.TID 0000.0001) %MON g__g_vcfl_g_wvel_max         =   4.3414680408469E-04
(PID.TID 0000.0001) %MON g__g_vcfl_g_W_hf_max         =   1.0419523298033E-03
(PID.TID 0000.0001) // =======================================================
(PID.TID 0000.0001) // End MONITOR dynamic field statistics
(PID.TID 0000.0001) // =======================================================
 cg2d: Sum(rhs),rhsMax =  -5.38089848602087E-13  1.90698579852923E-02
 cg2d: Sum(rhs),rhsMax =  -8.18055692630715E-13  9.25214403713224E+00
(PID.TID 0000.0001) // =======================================================
(PID.TID 0000.0001) // Begin MONITOR dynamic field statistics
(PID.TID 0000.0001) // =======================================================
(PID.TID 0000.0001) %MON g__time_tsnumber             =                    14
(PID.TID 0000.0001) %MON g__time_secondsf             =   6.0480000000000E+05
(PID.TID 0000.0001) %MON g__dynstat_g_eta_max         =   4.3294807732453E-03
(PID.TID 0000.0001) %MON g__dynstat_g_eta_min         =  -2.4822973248399E-04
(PID.TID 0000.0001) %MON g__dynstat_g_eta_mean        =   6.3842020123296E-19
(PID.TID 0000.0001) %MON g__dynstat_g_eta_sd          =   5.4725203873407E-05
(PID.TID 0000.0001) %MON g__dynstat_g_eta_del2        =   2.9916612741959E-06
(PID.TID 0000.0001) %MON g__dynstat_g_uvel_max        =   5.1095688927285E-04
(PID.TID 0000.0001) %MON g__dynstat_g_uvel_min        =  -6.5640755758196E-04
(PID.TID 0000.0001) %MON g__dynstat_g_uvel_mean       =   3.9345736356790E-08
(PID.TID 0000.0001) %MON g__dynstat_g_uvel_sd         =   1.4874723235478E-06
(PID.TID 0000.0001) %MON g__dynstat_g_uvel_del2       =   1.0493326267410E-07
(PID.TID 0000.0001) %MON g__dynstat_g_vvel_max        =   2.8421237898721E-04
(PID.TID 0000.0001) %MON g__dynstat_g_vvel_min        =  -1.5787508697185E-04
(PID.TID 0000.0001) %MON g__dynstat_g_vvel_mean       =  -3.5997048300570E-08
(PID.TID 0000.0001) %MON g__dynstat_g_vvel_sd         =   8.4364314343073E-07
(PID.TID 0000.0001) %MON g__dynstat_g_vvel_del2       =   5.4112302950956E-08
(PID.TID 0000.0001) %MON g__dynstat_g_wvel_max        =   5.9500510204445E-07
(PID.TID 0000.0001) %MON g__dynstat_g_wvel_min        =  -3.8300614260087E-07
(PID.TID 0000.0001) %MON g__dynstat_g_wvel_mean       =   7.0376836193513E-27
(PID.TID 0000.0001) %MON g__dynstat_g_wvel_sd         =   2.2407717464855E-09
(PID.TID 0000.0001) %MON g__dynstat_g_wvel_del2       =   2.1887445681138E-10
(PID.TID 0000.0001) %MON g__dynstat_g_theta_max       =   1.0697188518471E+00
(PID.TID 0000.0001) %MON g__dynstat_g_theta_min       =  -6.1669843315474E-04
(PID.TID 0000.0001) %MON g__dynstat_g_theta_mean      =   3.1590512497232E-06
(PID.TID 0000.0001) %MON g__dynstat_g_theta_sd        =   1.5702689211850E-03
(PID.TID 0000.0001) %MON g__dynstat_g_theta_del2      =   6.2557756797335E-05
(PID.TID 0000.0001) %MON g__dynstat_g_salt_max        =   2.6573662994609E-03
(PID.TID 0000.0001) %MON g__dynstat_g_salt_min        =  -4.5496411033642E-03
(PID.TID 0000.0001) %MON g__dynstat_g_salt_mean       =   8.1636624226115E-11
(PID.TID 0000.0001) %MON g__dynstat_g_salt_sd         =   8.5642459451987E-06
(PID.TID 0000.0001) %MON g__dynstat_g_salt_del2       =   5.9850357713022E-07
(PID.TID 0000.0001) %MON g__dynstat_g_sst_max         =   1.0697188518471E+00
(PID.TID 0000.0001) %MON g__dynstat_g_sst_min         =  -1.5934267944144E-05
(PID.TID 0000.0001) %MON g__dynstat_g_sst_mean        =   1.8764518478106E-04
(PID.TID 0000.0001) %MON g__dynstat_g_sst_sd          =   1.3470702304738E-02
(PID.TID 0000.0001) %MON g__dynstat_g_sst_del2        =   6.7015491662795E-04
(PID.TID 0000.0001) %MON g__dynstat_g_sss_max         =   2.6573662994609E-03
(PID.TID 0000.0001) %MON g__dynstat_g_sss_min         =  -4.5496411033642E-03
(PID.TID 0000.0001) %MON g__dynstat_g_sss_mean        =   4.2481104138765E-08
(PID.TID 0000.0001) %MON g__dynstat_g_sss_sd          =   7.0633510547271E-05
(PID.TID 0000.0001) %MON g__dynstat_g_sss_del2        =   5.6462605531706E-06
(PID.TID 0000.0001) %MON g__extforcing_g_qnet_max     =   0.0000000000000E+00
(PID.TID 0000.0001) %MON g__extforcing_g_qnet_min     =   0.0000000000000E+00
(PID.TID 0000.0001) %MON g__extforcing_g_qnet_mean    =   0.0000000000000E+00
(PID.TID 0000.0001) %MON g__extforcing_g_qnet_sd      =   0.0000000000000E+00
(PID.TID 0000.0001) %MON g__extforcing_g_qnet_del2    =   0.0000000000000E+00
(PID.TID 0000.0001) %MON g__extforcing_g_empmr_max    =   0.0000000000000E+00
(PID.TID 0000.0001) %MON g__extforcing_g_empmr_min    =   0.0000000000000E+00
(PID.TID 0000.0001) %MON g__extforcing_g_empmr_mean   =   0.0000000000000E+00
(PID.TID 0000.0001) %MON g__extforcing_g_empmr_sd     =   0.0000000000000E+00
(PID.TID 0000.0001) %MON g__extforcing_g_empmr_del2   =   0.0000000000000E+00
(PID.TID 0000.0001) %MON g__extforcing_g_fu_max       =   0.0000000000000E+00
(PID.TID 0000.0001) %MON g__extforcing_g_fu_min       =   0.0000000000000E+00
(PID.TID 0000.0001) %MON g__extforcing_g_fu_mean      =   0.0000000000000E+00
(PID.TID 0000.0001) %MON g__extforcing_g_fu_sd        =   0.0000000000000E+00
(PID.TID 0000.0001) %MON g__extforcing_g_fu_del2      =   0.0000000000000E+00
(PID.TID 0000.0001) %MON g__extforcing_g_fv_max       =   0.0000000000000E+00
(PID.TID 0000.0001) %MON g__extforcing_g_fv_min       =   0.0000000000000E+00
(PID.TID 0000.0001) %MON g__extforcing_g_fv_mean      =   0.0000000000000E+00
(PID.TID 0000.0001) %MON g__extforcing_g_fv_sd        =   0.0000000000000E+00
(PID.TID 0000.0001) %MON g__extforcing_g_fv_del2      =   0.0000000000000E+00
(PID.TID 0000.0001) %MON g__g_vcfl_g_uvel_max         =   2.3133559046927E-04
(PID.TID 0000.0001) %MON g__g_vcfl_g_vvel_max         =   2.7608953509336E-05
(PID.TID 0000.0001) %MON g__g_vcfl_g_wvel_max         =   4.2840367347201E-04
(PID.TID 0000.0001) %MON g__g_vcfl_g_W_hf_max         =   1.0281688163328E-03
(PID.TID 0000.0001) // =======================================================
(PID.TID 0000.0001) // End MONITOR dynamic field statistics
(PID.TID 0000.0001) // =======================================================
 cg2d: Sum(rhs),rhsMax =  -5.11605891144982E-13  1.96456793093236E-02
 cg2d: Sum(rhs),rhsMax =  -9.67533345108684E-13  9.75412758742915E+00
(PID.TID 0000.0001) // =======================================================
(PID.TID 0000.0001) // Begin MONITOR dynamic field statistics
(PID.TID 0000.0001) // =======================================================
(PID.TID 0000.0001) %MON g__time_tsnumber             =                    15
(PID.TID 0000.0001) %MON g__time_secondsf             =   6.4800000000000E+05
(PID.TID 0000.0001) %MON g__dynstat_g_eta_max         =   4.4392475862215E-03
(PID.TID 0000.0001) %MON g__dynstat_g_eta_min         =  -3.3952342574812E-04
(PID.TID 0000.0001) %MON g__dynstat_g_eta_mean        =   5.5803999249730E-19
(PID.TID 0000.0001) %MON g__dynstat_g_eta_sd          =   5.6149465742700E-05
(PID.TID 0000.0001) %MON g__dynstat_g_eta_del2        =   3.0997879815827E-06
(PID.TID 0000.0001) %MON g__dynstat_g_uvel_max        =   4.8522578982469E-04
(PID.TID 0000.0001) %MON g__dynstat_g_uvel_min        =  -6.5789100055130E-04
(PID.TID 0000.0001) %MON g__dynstat_g_uvel_mean       =   4.1859279767999E-08
(PID.TID 0000.0001) %MON g__dynstat_g_uvel_sd         =   1.4711770918162E-06
(PID.TID 0000.0001) %MON g__dynstat_g_uvel_del2       =   1.0230143015598E-07
(PID.TID 0000.0001) %MON g__dynstat_g_vvel_max        =   3.0756555169814E-04
(PID.TID 0000.0001) %MON g__dynstat_g_vvel_min        =  -1.8151293768767E-04
(PID.TID 0000.0001) %MON g__dynstat_g_vvel_mean       =  -3.2922945972229E-08
(PID.TID 0000.0001) %MON g__dynstat_g_vvel_sd         =   8.7406439522454E-07
(PID.TID 0000.0001) %MON g__dynstat_g_vvel_del2       =   5.5114966654662E-08
(PID.TID 0000.0001) %MON g__dynstat_g_wvel_max        =   5.8341820694572E-07
(PID.TID 0000.0001) %MON g__dynstat_g_wvel_min        =  -3.6737127788282E-07
(PID.TID 0000.0001) %MON g__dynstat_g_wvel_mean       =   5.7651362353191E-27
(PID.TID 0000.0001) %MON g__dynstat_g_wvel_sd         =   2.1868457558324E-09
(PID.TID 0000.0001) %MON g__dynstat_g_wvel_del2       =   2.1271507069207E-10
(PID.TID 0000.0001) %MON g__dynstat_g_theta_max       =   1.0795732255307E+00
(PID.TID 0000.0001) %MON g__dynstat_g_theta_min       =  -7.0392280374669E-04
(PID.TID 0000.0001) %MON g__dynstat_g_theta_mean      =   3.2806423496045E-06
(PID.TID 0000.0001) %MON g__dynstat_g_theta_sd        =   1.5910809134845E-03
(PID.TID 0000.0001) %MON g__dynstat_g_theta_del2      =   6.3889328286554E-05
(PID.TID 0000.0001) %MON g__dynstat_g_salt_max        =   2.8504716876310E-03
(PID.TID 0000.0001) %MON g__dynstat_g_salt_min        =  -4.9522783603926E-03
(PID.TID 0000.0001) %MON g__dynstat_g_salt_mean       =   5.5560825500120E-10
(PID.TID 0000.0001) %MON g__dynstat_g_salt_sd         =   9.2410314603768E-06
(PID.TID 0000.0001) %MON g__dynstat_g_salt_del2       =   6.4037712329752E-07
(PID.TID 0000.0001) %MON g__dynstat_g_sst_max         =   1.0795732255307E+00
(PID.TID 0000.0001) %MON g__dynstat_g_sst_min         =  -1.8239874738941E-05
(PID.TID 0000.0001) %MON g__dynstat_g_sst_mean        =   1.9071575437725E-04
(PID.TID 0000.0001) %MON g__dynstat_g_sst_sd          =   1.3599269075353E-02
(PID.TID 0000.0001) %MON g__dynstat_g_sst_del2        =   6.7472410549935E-04
(PID.TID 0000.0001) %MON g__dynstat_g_sss_max         =   2.8504716876310E-03
(PID.TID 0000.0001) %MON g__dynstat_g_sss_min         =  -4.9522783603926E-03
(PID.TID 0000.0001) %MON g__dynstat_g_sss_mean        =   4.5198041535098E-08
(PID.TID 0000.0001) %MON g__dynstat_g_sss_sd          =   7.6631480801333E-05
(PID.TID 0000.0001) %MON g__dynstat_g_sss_del2        =   6.1056932750283E-06
(PID.TID 0000.0001) %MON g__extforcing_g_qnet_max     =   0.0000000000000E+00
(PID.TID 0000.0001) %MON g__extforcing_g_qnet_min     =   0.0000000000000E+00
(PID.TID 0000.0001) %MON g__extforcing_g_qnet_mean    =   0.0000000000000E+00
(PID.TID 0000.0001) %MON g__extforcing_g_qnet_sd      =   0.0000000000000E+00
(PID.TID 0000.0001) %MON g__extforcing_g_qnet_del2    =   0.0000000000000E+00
(PID.TID 0000.0001) %MON g__extforcing_g_empmr_max    =   0.0000000000000E+00
(PID.TID 0000.0001) %MON g__extforcing_g_empmr_min    =   0.0000000000000E+00
(PID.TID 0000.0001) %MON g__extforcing_g_empmr_mean   =   0.0000000000000E+00
(PID.TID 0000.0001) %MON g__extforcing_g_empmr_sd     =   0.0000000000000E+00
(PID.TID 0000.0001) %MON g__extforcing_g_empmr_del2   =   0.0000000000000E+00
(PID.TID 0000.0001) %MON g__extforcing_g_fu_max       =   0.0000000000000E+00
(PID.TID 0000.0001) %MON g__extforcing_g_fu_min       =   0.0000000000000E+00
(PID.TID 0000.0001) %MON g__extforcing_g_fu_mean      =   0.0000000000000E+00
(PID.TID 0000.0001) %MON g__extforcing_g_fu_sd        =   0.0000000000000E+00
(PID.TID 0000.0001) %MON g__extforcing_g_fu_del2      =   0.0000000000000E+00
(PID.TID 0000.0001) %MON g__extforcing_g_fv_max       =   0.0000000000000E+00
(PID.TID 0000.0001) %MON g__extforcing_g_fv_min       =   0.0000000000000E+00
(PID.TID 0000.0001) %MON g__extforcing_g_fv_mean      =   0.0000000000000E+00
(PID.TID 0000.0001) %MON g__extforcing_g_fv_sd        =   0.0000000000000E+00
(PID.TID 0000.0001) %MON g__extforcing_g_fv_del2      =   0.0000000000000E+00
(PID.TID 0000.0001) %MON g__g_vcfl_g_uvel_max         =   2.3185839547247E-04
(PID.TID 0000.0001) %MON g__g_vcfl_g_vvel_max         =   2.9877526968273E-05
(PID.TID 0000.0001) %MON g__g_vcfl_g_wvel_max         =   4.2006110900092E-04
(PID.TID 0000.0001) %MON g__g_vcfl_g_W_hf_max         =   1.0081466616022E-03
(PID.TID 0000.0001) // =======================================================
(PID.TID 0000.0001) // End MONITOR dynamic field statistics
(PID.TID 0000.0001) // =======================================================
 cg2d: Sum(rhs),rhsMax =  -4.36186286147459E-13  2.01350927538772E-02
 cg2d: Sum(rhs),rhsMax =  -9.21351536731230E-13  1.00472791850534E+01
(PID.TID 0000.0001) // =======================================================
(PID.TID 0000.0001) // Begin MONITOR dynamic field statistics
(PID.TID 0000.0001) // =======================================================
(PID.TID 0000.0001) %MON g__time_tsnumber             =                    16
(PID.TID 0000.0001) %MON g__time_secondsf             =   6.9120000000000E+05
(PID.TID 0000.0001) %MON g__dynstat_g_eta_max         =   4.5394473674017E-03
(PID.TID 0000.0001) %MON g__dynstat_g_eta_min         =  -3.9632213972484E-04
(PID.TID 0000.0001) %MON g__dynstat_g_eta_mean        =   4.2427255679291E-19
(PID.TID 0000.0001) %MON g__dynstat_g_eta_sd          =   5.7442548619840E-05
(PID.TID 0000.0001) %MON g__dynstat_g_eta_del2        =   3.1955668868754E-06
(PID.TID 0000.0001) %MON g__dynstat_g_uvel_max        =   4.5421144111127E-04
(PID.TID 0000.0001) %MON g__dynstat_g_uvel_min        =  -6.5731200738264E-04
(PID.TID 0000.0001) %MON g__dynstat_g_uvel_mean       =   4.3300574679031E-08
(PID.TID 0000.0001) %MON g__dynstat_g_uvel_sd         =   1.4448548794126E-06
(PID.TID 0000.0001) %MON g__dynstat_g_uvel_del2       =   1.0044078309852E-07
(PID.TID 0000.0001) %MON g__dynstat_g_vvel_max        =   3.2857895833594E-04
(PID.TID 0000.0001) %MON g__dynstat_g_vvel_min        =  -2.0755059665892E-04
(PID.TID 0000.0001) %MON g__dynstat_g_vvel_mean       =  -2.9903693954789E-08
(PID.TID 0000.0001) %MON g__dynstat_g_vvel_sd         =   9.0863888161106E-07
(PID.TID 0000.0001) %MON g__dynstat_g_vvel_del2       =   5.6330324725348E-08
(PID.TID 0000.0001) %MON g__dynstat_g_wvel_max        =   5.7896019683471E-07
(PID.TID 0000.0001) %MON g__dynstat_g_wvel_min        =  -3.4167191484638E-07
(PID.TID 0000.0001) %MON g__dynstat_g_wvel_mean       =  -1.1999119713207E-26
(PID.TID 0000.0001) %MON g__dynstat_g_wvel_sd         =   2.0958926773891E-09
(PID.TID 0000.0001) %MON g__dynstat_g_wvel_del2       =   2.0236562514239E-10
(PID.TID 0000.0001) %MON g__dynstat_g_theta_max       =   1.0825317872490E+00
(PID.TID 0000.0001) %MON g__dynstat_g_theta_min       =  -7.9225946192321E-04
(PID.TID 0000.0001) %MON g__dynstat_g_theta_mean      =   3.3654816707286E-06
(PID.TID 0000.0001) %MON g__dynstat_g_theta_sd        =   1.6006680212022E-03
(PID.TID 0000.0001) %MON g__dynstat_g_theta_del2      =   6.4618356562983E-05
(PID.TID 0000.0001) %MON g__dynstat_g_salt_max        =   3.0216579005379E-03
(PID.TID 0000.0001) %MON g__dynstat_g_salt_min        =  -5.3153980214460E-03
(PID.TID 0000.0001) %MON g__dynstat_g_salt_mean       =   1.0195055165553E-09
(PID.TID 0000.0001) %MON g__dynstat_g_salt_sd         =   9.8657514344212E-06
(PID.TID 0000.0001) %MON g__dynstat_g_salt_del2       =   6.8009996253539E-07
(PID.TID 0000.0001) %MON g__dynstat_g_sst_max         =   1.0825317872490E+00
(PID.TID 0000.0001) %MON g__dynstat_g_sst_min         =  -1.7704347755268E-05
(PID.TID 0000.0001) %MON g__dynstat_g_sst_mean        =   1.9243970681122E-04
(PID.TID 0000.0001) %MON g__dynstat_g_sst_sd          =   1.3640726139901E-02
(PID.TID 0000.0001) %MON g__dynstat_g_sst_del2        =   6.7513548467540E-04
(PID.TID 0000.0001) %MON g__dynstat_g_sss_max         =   3.0216579005379E-03
(PID.TID 0000.0001) %MON g__dynstat_g_sss_min         =  -5.3153980214460E-03
(PID.TID 0000.0001) %MON g__dynstat_g_sss_mean        =   4.7054667737868E-08
(PID.TID 0000.0001) %MON g__dynstat_g_sss_sd          =   8.2057781508912E-05
(PID.TID 0000.0001) %MON g__dynstat_g_sss_del2        =   6.5230497105257E-06
(PID.TID 0000.0001) %MON g__extforcing_g_qnet_max     =   0.0000000000000E+00
(PID.TID 0000.0001) %MON g__extforcing_g_qnet_min     =   0.0000000000000E+00
(PID.TID 0000.0001) %MON g__extforcing_g_qnet_mean    =   0.0000000000000E+00
(PID.TID 0000.0001) %MON g__extforcing_g_qnet_sd      =   0.0000000000000E+00
(PID.TID 0000.0001) %MON g__extforcing_g_qnet_del2    =   0.0000000000000E+00
(PID.TID 0000.0001) %MON g__extforcing_g_empmr_max    =   0.0000000000000E+00
(PID.TID 0000.0001) %MON g__extforcing_g_empmr_min    =   0.0000000000000E+00
(PID.TID 0000.0001) %MON g__extforcing_g_empmr_mean   =   0.0000000000000E+00
(PID.TID 0000.0001) %MON g__extforcing_g_empmr_sd     =   0.0000000000000E+00
(PID.TID 0000.0001) %MON g__extforcing_g_empmr_del2   =   0.0000000000000E+00
(PID.TID 0000.0001) %MON g__extforcing_g_fu_max       =   0.0000000000000E+00
(PID.TID 0000.0001) %MON g__extforcing_g_fu_min       =   0.0000000000000E+00
(PID.TID 0000.0001) %MON g__extforcing_g_fu_mean      =   0.0000000000000E+00
(PID.TID 0000.0001) %MON g__extforcing_g_fu_sd        =   0.0000000000000E+00
(PID.TID 0000.0001) %MON g__extforcing_g_fu_del2      =   0.0000000000000E+00
(PID.TID 0000.0001) %MON g__extforcing_g_fv_max       =   0.0000000000000E+00
(PID.TID 0000.0001) %MON g__extforcing_g_fv_min       =   0.0000000000000E+00
(PID.TID 0000.0001) %MON g__extforcing_g_fv_mean      =   0.0000000000000E+00
(PID.TID 0000.0001) %MON g__extforcing_g_fv_sd        =   0.0000000000000E+00
(PID.TID 0000.0001) %MON g__extforcing_g_fv_del2      =   0.0000000000000E+00
(PID.TID 0000.0001) %MON g__g_vcfl_g_uvel_max         =   2.3165434278447E-04
(PID.TID 0000.0001) %MON g__g_vcfl_g_vvel_max         =   3.1918810915872E-05
(PID.TID 0000.0001) %MON g__g_vcfl_g_wvel_max         =   4.0410105898021E-04
(PID.TID 0000.0001) %MON g__g_vcfl_g_W_hf_max         =   9.6984254155250E-04
(PID.TID 0000.0001) // =======================================================
(PID.TID 0000.0001) // End MONITOR dynamic field statistics
(PID.TID 0000.0001) // =======================================================
 cg2d: Sum(rhs),rhsMax =  -3.25722681950051E-13  2.04763080988775E-02
 cg2d: Sum(rhs),rhsMax =  -9.52874931736680E-13  1.01282964952821E+01
(PID.TID 0000.0001) // =======================================================
(PID.TID 0000.0001) // Begin MONITOR dynamic field statistics
(PID.TID 0000.0001) // =======================================================
(PID.TID 0000.0001) %MON g__time_tsnumber             =                    17
(PID.TID 0000.0001) %MON g__time_secondsf             =   7.3440000000000E+05
(PID.TID 0000.0001) %MON g__dynstat_g_eta_max         =   4.6179911730470E-03
(PID.TID 0000.0001) %MON g__dynstat_g_eta_min         =  -4.1120275142715E-04
(PID.TID 0000.0001) %MON g__dynstat_g_eta_mean        =   2.4540210141094E-19
(PID.TID 0000.0001) %MON g__dynstat_g_eta_sd          =   5.8431592523530E-05
(PID.TID 0000.0001) %MON g__dynstat_g_eta_del2        =   3.2548281433720E-06
(PID.TID 0000.0001) %MON g__dynstat_g_uvel_max        =   4.1692460285865E-04
(PID.TID 0000.0001) %MON g__dynstat_g_uvel_min        =  -6.5107154532953E-04
(PID.TID 0000.0001) %MON g__dynstat_g_uvel_mean       =   4.3863553628014E-08
(PID.TID 0000.0001) %MON g__dynstat_g_uvel_sd         =   1.4042626137215E-06
(PID.TID 0000.0001) %MON g__dynstat_g_uvel_del2       =   9.7239451323578E-08
(PID.TID 0000.0001) %MON g__dynstat_g_vvel_max        =   3.4764872551023E-04
(PID.TID 0000.0001) %MON g__dynstat_g_vvel_min        =  -2.3452681272442E-04
(PID.TID 0000.0001) %MON g__dynstat_g_vvel_mean       =  -2.7123682833126E-08
(PID.TID 0000.0001) %MON g__dynstat_g_vvel_sd         =   9.4437340194000E-07
(PID.TID 0000.0001) %MON g__dynstat_g_vvel_del2       =   5.7806221236088E-08
(PID.TID 0000.0001) %MON g__dynstat_g_wvel_max        =   5.6443829582319E-07
(PID.TID 0000.0001) %MON g__dynstat_g_wvel_min        =  -3.1573956295985E-07
(PID.TID 0000.0001) %MON g__dynstat_g_wvel_mean       =  -2.2361710958131E-27
(PID.TID 0000.0001) %MON g__dynstat_g_wvel_sd         =   1.9689356182019E-09
(PID.TID 0000.0001) %MON g__dynstat_g_wvel_del2       =   1.8842211536711E-10
(PID.TID 0000.0001) %MON g__dynstat_g_theta_max       =   1.0777258241143E+00
(PID.TID 0000.0001) %MON g__dynstat_g_theta_min       =  -8.8281845248684E-04
(PID.TID 0000.0001) %MON g__dynstat_g_theta_mean      =   3.4064327225151E-06
(PID.TID 0000.0001) %MON g__dynstat_g_theta_sd        =   1.5971406032709E-03
(PID.TID 0000.0001) %MON g__dynstat_g_theta_del2      =   6.4650328488098E-05
(PID.TID 0000.0001) %MON g__dynstat_g_salt_max        =   3.1703650204951E-03
(PID.TID 0000.0001) %MON g__dynstat_g_salt_min        =  -5.6235711070849E-03
(PID.TID 0000.0001) %MON g__dynstat_g_salt_mean       =   1.4612115528042E-09
(PID.TID 0000.0001) %MON g__dynstat_g_salt_sd         =   1.0417333710359E-05
(PID.TID 0000.0001) %MON g__dynstat_g_salt_del2       =   7.1718542775610E-07
(PID.TID 0000.0001) %MON g__dynstat_g_sst_max         =   1.0777258241143E+00
(PID.TID 0000.0001) %MON g__dynstat_g_sst_min         =  -1.6306337546314E-05
(PID.TID 0000.0001) %MON g__dynstat_g_sst_mean        =   1.9262811648654E-04
(PID.TID 0000.0001) %MON g__dynstat_g_sst_sd          =   1.3583789177469E-02
(PID.TID 0000.0001) %MON g__dynstat_g_sst_del2        =   6.7088638504657E-04
(PID.TID 0000.0001) %MON g__dynstat_g_sss_max         =   3.1703650204951E-03
(PID.TID 0000.0001) %MON g__dynstat_g_sss_min         =  -5.6235711070849E-03
(PID.TID 0000.0001) %MON g__dynstat_g_sss_mean        =   4.8496166031264E-08
(PID.TID 0000.0001) %MON g__dynstat_g_sss_sd          =   8.6705349399207E-05
(PID.TID 0000.0001) %MON g__dynstat_g_sss_del2        =   6.8841336452026E-06
(PID.TID 0000.0001) %MON g__extforcing_g_qnet_max     =   0.0000000000000E+00
(PID.TID 0000.0001) %MON g__extforcing_g_qnet_min     =   0.0000000000000E+00
(PID.TID 0000.0001) %MON g__extforcing_g_qnet_mean    =   0.0000000000000E+00
(PID.TID 0000.0001) %MON g__extforcing_g_qnet_sd      =   0.0000000000000E+00
(PID.TID 0000.0001) %MON g__extforcing_g_qnet_del2    =   0.0000000000000E+00
(PID.TID 0000.0001) %MON g__extforcing_g_empmr_max    =   0.0000000000000E+00
(PID.TID 0000.0001) %MON g__extforcing_g_empmr_min    =   0.0000000000000E+00
(PID.TID 0000.0001) %MON g__extforcing_g_empmr_mean   =   0.0000000000000E+00
(PID.TID 0000.0001) %MON g__extforcing_g_empmr_sd     =   0.0000000000000E+00
(PID.TID 0000.0001) %MON g__extforcing_g_empmr_del2   =   0.0000000000000E+00
(PID.TID 0000.0001) %MON g__extforcing_g_fu_max       =   0.0000000000000E+00
(PID.TID 0000.0001) %MON g__extforcing_g_fu_min       =   0.0000000000000E+00
(PID.TID 0000.0001) %MON g__extforcing_g_fu_mean      =   0.0000000000000E+00
(PID.TID 0000.0001) %MON g__extforcing_g_fu_sd        =   0.0000000000000E+00
(PID.TID 0000.0001) %MON g__extforcing_g_fu_del2      =   0.0000000000000E+00
(PID.TID 0000.0001) %MON g__extforcing_g_fv_max       =   0.0000000000000E+00
(PID.TID 0000.0001) %MON g__extforcing_g_fv_min       =   0.0000000000000E+00
(PID.TID 0000.0001) %MON g__extforcing_g_fv_mean      =   0.0000000000000E+00
(PID.TID 0000.0001) %MON g__extforcing_g_fv_sd        =   0.0000000000000E+00
(PID.TID 0000.0001) %MON g__extforcing_g_fv_del2      =   0.0000000000000E+00
(PID.TID 0000.0001) %MON g__g_vcfl_g_uvel_max         =   2.2945503694592E-04
(PID.TID 0000.0001) %MON g__g_vcfl_g_vvel_max         =   3.3771285875707E-05
(PID.TID 0000.0001) %MON g__g_vcfl_g_wvel_max         =   3.7703625456730E-04
(PID.TID 0000.0001) %MON g__g_vcfl_g_W_hf_max         =   9.0488701096151E-04
(PID.TID 0000.0001) // =======================================================
(PID.TID 0000.0001) // End MONITOR dynamic field statistics
(PID.TID 0000.0001) // =======================================================
 cg2d: Sum(rhs),rhsMax =  -1.87277400115482E-13  2.06187303974958E-02
 cg2d: Sum(rhs),rhsMax =  -7.74356273547383E-13  1.00066236471320E+01
(PID.TID 0000.0001) // =======================================================
(PID.TID 0000.0001) // Begin MONITOR dynamic field statistics
(PID.TID 0000.0001) // =======================================================
(PID.TID 0000.0001) %MON g__time_tsnumber             =                    18
(PID.TID 0000.0001) %MON g__time_secondsf             =   7.7760000000000E+05
(PID.TID 0000.0001) %MON g__dynstat_g_eta_max         =   4.6632497520226E-03
(PID.TID 0000.0001) %MON g__dynstat_g_eta_min         =  -3.8227824991270E-04
(PID.TID 0000.0001) %MON g__dynstat_g_eta_mean        =   2.7475663963174E-20
(PID.TID 0000.0001) %MON g__dynstat_g_eta_sd          =   5.8967504923382E-05
(PID.TID 0000.0001) %MON g__dynstat_g_eta_del2        =   3.2756484899630E-06
(PID.TID 0000.0001) %MON g__dynstat_g_uvel_max        =   3.7204674641171E-04
(PID.TID 0000.0001) %MON g__dynstat_g_uvel_min        =  -6.3513355275444E-04
(PID.TID 0000.0001) %MON g__dynstat_g_uvel_mean       =   4.3808650367087E-08
(PID.TID 0000.0001) %MON g__dynstat_g_uvel_sd         =   1.3447523288494E-06
(PID.TID 0000.0001) %MON g__dynstat_g_uvel_del2       =   9.2450840094318E-08
(PID.TID 0000.0001) %MON g__dynstat_g_vvel_max        =   3.6504339605820E-04
(PID.TID 0000.0001) %MON g__dynstat_g_vvel_min        =  -2.6092430547060E-04
(PID.TID 0000.0001) %MON g__dynstat_g_vvel_mean       =  -2.4667520981234E-08
(PID.TID 0000.0001) %MON g__dynstat_g_vvel_sd         =   9.7725923008962E-07
(PID.TID 0000.0001) %MON g__dynstat_g_vvel_del2       =   5.8749347692952E-08
(PID.TID 0000.0001) %MON g__dynstat_g_wvel_max        =   5.3082292609512E-07
(PID.TID 0000.0001) %MON g__dynstat_g_wvel_min        =  -2.9101742893356E-07
(PID.TID 0000.0001) %MON g__dynstat_g_wvel_mean       =  -1.2633375682925E-27
(PID.TID 0000.0001) %MON g__dynstat_g_wvel_sd         =   1.8072776129703E-09
(PID.TID 0000.0001) %MON g__dynstat_g_wvel_del2       =   1.7479348860252E-10
(PID.TID 0000.0001) %MON g__dynstat_g_theta_max       =   1.0651606611327E+00
(PID.TID 0000.0001) %MON g__dynstat_g_theta_min       =  -9.7091980509690E-04
(PID.TID 0000.0001) %MON g__dynstat_g_theta_mean      =   3.4018355075962E-06
(PID.TID 0000.0001) %MON g__dynstat_g_theta_sd        =   1.5802119485268E-03
(PID.TID 0000.0001) %MON g__dynstat_g_theta_del2      =   6.3972155566736E-05
(PID.TID 0000.0001) %MON g__dynstat_g_salt_max        =   3.2986632056616E-03
(PID.TID 0000.0001) %MON g__dynstat_g_salt_min        =  -5.8676816322070E-03
(PID.TID 0000.0001) %MON g__dynstat_g_salt_mean       =   1.8752820270384E-09
(PID.TID 0000.0001) %MON g__dynstat_g_salt_sd         =   1.0883051152050E-05
(PID.TID 0000.0001) %MON g__dynstat_g_salt_del2       =   7.5107154111877E-07
(PID.TID 0000.0001) %MON g__dynstat_g_sst_max         =   1.0651606611327E+00
(PID.TID 0000.0001) %MON g__dynstat_g_sst_min         =  -1.6806498012148E-05
(PID.TID 0000.0001) %MON g__dynstat_g_sst_mean        =   1.9126659643848E-04
(PID.TID 0000.0001) %MON g__dynstat_g_sst_sd          =   1.3428326215309E-02
(PID.TID 0000.0001) %MON g__dynstat_g_sst_del2        =   6.6199232989589E-04
(PID.TID 0000.0001) %MON g__dynstat_g_sss_max         =   3.2986632056616E-03
(PID.TID 0000.0001) %MON g__dynstat_g_sss_min         =  -5.8676816322070E-03
(PID.TID 0000.0001) %MON g__dynstat_g_sss_mean        =   4.9982207805232E-08
(PID.TID 0000.0001) %MON g__dynstat_g_sss_sd          =   9.0450089679093E-05
(PID.TID 0000.0001) %MON g__dynstat_g_sss_del2        =   7.1807014521704E-06
(PID.TID 0000.0001) %MON g__extforcing_g_qnet_max     =   0.0000000000000E+00
(PID.TID 0000.0001) %MON g__extforcing_g_qnet_min     =   0.0000000000000E+00
(PID.TID 0000.0001) %MON g__extforcing_g_qnet_mean    =   0.0000000000000E+00
(PID.TID 0000.0001) %MON g__extforcing_g_qnet_sd      =   0.0000000000000E+00
(PID.TID 0000.0001) %MON g__extforcing_g_qnet_del2    =   0.0000000000000E+00
(PID.TID 0000.0001) %MON g__extforcing_g_empmr_max    =   0.0000000000000E+00
(PID.TID 0000.0001) %MON g__extforcing_g_empmr_min    =   0.0000000000000E+00
(PID.TID 0000.0001) %MON g__extforcing_g_empmr_mean   =   0.0000000000000E+00
(PID.TID 0000.0001) %MON g__extforcing_g_empmr_sd     =   0.0000000000000E+00
(PID.TID 0000.0001) %MON g__extforcing_g_empmr_del2   =   0.0000000000000E+00
(PID.TID 0000.0001) %MON g__extforcing_g_fu_max       =   0.0000000000000E+00
(PID.TID 0000.0001) %MON g__extforcing_g_fu_min       =   0.0000000000000E+00
(PID.TID 0000.0001) %MON g__extforcing_g_fu_mean      =   0.0000000000000E+00
(PID.TID 0000.0001) %MON g__extforcing_g_fu_sd        =   0.0000000000000E+00
(PID.TID 0000.0001) %MON g__extforcing_g_fu_del2      =   0.0000000000000E+00
(PID.TID 0000.0001) %MON g__extforcing_g_fv_max       =   0.0000000000000E+00
(PID.TID 0000.0001) %MON g__extforcing_g_fv_min       =   0.0000000000000E+00
(PID.TID 0000.0001) %MON g__extforcing_g_fv_mean      =   0.0000000000000E+00
(PID.TID 0000.0001) %MON g__extforcing_g_fv_sd        =   0.0000000000000E+00
(PID.TID 0000.0001) %MON g__extforcing_g_fv_del2      =   0.0000000000000E+00
(PID.TID 0000.0001) %MON g__g_vcfl_g_uvel_max         =   2.2383806182023E-04
(PID.TID 0000.0001) %MON g__g_vcfl_g_vvel_max         =   3.5461038630954E-05
(PID.TID 0000.0001) %MON g__g_vcfl_g_wvel_max         =   3.3759315765855E-04
(PID.TID 0000.0001) %MON g__g_vcfl_g_W_hf_max         =   8.1022357838052E-04
(PID.TID 0000.0001) // =======================================================
(PID.TID 0000.0001) // End MONITOR dynamic field statistics
(PID.TID 0000.0001) // =======================================================
 cg2d: Sum(rhs),rhsMax =  -2.06541209201613E-14  2.05372472059443E-02
 cg2d: Sum(rhs),rhsMax =  -7.06018576934753E-13  9.70409645617043E+00
(PID.TID 0000.0001) // =======================================================
(PID.TID 0000.0001) // Begin MONITOR dynamic field statistics
(PID.TID 0000.0001) // =======================================================
(PID.TID 0000.0001) %MON g__time_tsnumber             =                    19
(PID.TID 0000.0001) %MON g__time_secondsf             =   8.2080000000000E+05
(PID.TID 0000.0001) %MON g__dynstat_g_eta_max         =   4.6674105704577E-03
(PID.TID 0000.0001) %MON g__dynstat_g_eta_min         =  -3.1393532411324E-04
(PID.TID 0000.0001) %MON g__dynstat_g_eta_mean        =  -2.2555628762006E-19
(PID.TID 0000.0001) %MON g__dynstat_g_eta_sd          =   5.8968450849091E-05
(PID.TID 0000.0001) %MON g__dynstat_g_eta_del2        =   3.2441688196119E-06
(PID.TID 0000.0001) %MON g__dynstat_g_uvel_max        =   3.1850119245569E-04
(PID.TID 0000.0001) %MON g__dynstat_g_uvel_min        =  -6.0585570980951E-04
(PID.TID 0000.0001) %MON g__dynstat_g_uvel_mean       =   4.3411247815052E-08
(PID.TID 0000.0001) %MON g__dynstat_g_uvel_sd         =   1.2630076597390E-06
(PID.TID 0000.0001) %MON g__dynstat_g_uvel_del2       =   8.6608985324547E-08
(PID.TID 0000.0001) %MON g__dynstat_g_vvel_max        =   3.8077569708648E-04
(PID.TID 0000.0001) %MON g__dynstat_g_vvel_min        =  -2.8534913422051E-04
(PID.TID 0000.0001) %MON g__dynstat_g_vvel_mean       =  -2.2521670234134E-08
(PID.TID 0000.0001) %MON g__dynstat_g_vvel_sd         =   1.0033329794954E-06
(PID.TID 0000.0001) %MON g__dynstat_g_vvel_del2       =   5.9567025275159E-08
(PID.TID 0000.0001) %MON g__dynstat_g_wvel_max        =   4.7770341248573E-07
(PID.TID 0000.0001) %MON g__dynstat_g_wvel_min        =  -2.6153927235083E-07
(PID.TID 0000.0001) %MON g__dynstat_g_wvel_mean       =  -6.4276458644533E-27
(PID.TID 0000.0001) %MON g__dynstat_g_wvel_sd         =   1.6124276113022E-09
(PID.TID 0000.0001) %MON g__dynstat_g_wvel_del2       =   1.6257187164722E-10
(PID.TID 0000.0001) %MON g__dynstat_g_theta_max       =   1.0456757895648E+00
(PID.TID 0000.0001) %MON g__dynstat_g_theta_min       =  -1.0561062084860E-03
(PID.TID 0000.0001) %MON g__dynstat_g_theta_mean      =   3.3555917473523E-06
(PID.TID 0000.0001) %MON g__dynstat_g_theta_sd        =   1.5512007201296E-03
(PID.TID 0000.0001) %MON g__dynstat_g_theta_del2      =   6.2657250036694E-05
(PID.TID 0000.0001) %MON g__dynstat_g_salt_max        =   3.4101915920955E-03
(PID.TID 0000.0001) %MON g__dynstat_g_salt_min        =  -6.0465829974826E-03
(PID.TID 0000.0001) %MON g__dynstat_g_salt_mean       =   2.2599179173996E-09
(PID.TID 0000.0001) %MON g__dynstat_g_salt_sd         =   1.1260960706881E-05
(PID.TID 0000.0001) %MON g__dynstat_g_salt_del2       =   7.8189806755554E-07
(PID.TID 0000.0001) %MON g__dynstat_g_sst_max         =   1.0456757895648E+00
(PID.TID 0000.0001) %MON g__dynstat_g_sst_min         =  -1.5277416482065E-05
(PID.TID 0000.0001) %MON g__dynstat_g_sst_mean        =   1.8850840194763E-04
(PID.TID 0000.0001) %MON g__dynstat_g_sst_sd          =   1.3184920898801E-02
(PID.TID 0000.0001) %MON g__dynstat_g_sst_del2        =   6.4896366344439E-04
(PID.TID 0000.0001) %MON g__dynstat_g_sss_max         =   3.4101915920955E-03
(PID.TID 0000.0001) %MON g__dynstat_g_sss_min         =  -6.0465829974826E-03
(PID.TID 0000.0001) %MON g__dynstat_g_sss_mean        =   5.1774524464239E-08
(PID.TID 0000.0001) %MON g__dynstat_g_sss_sd          =   9.3273712485719E-05
(PID.TID 0000.0001) %MON g__dynstat_g_sss_del2        =   7.4122507601488E-06
(PID.TID 0000.0001) %MON g__extforcing_g_qnet_max     =   0.0000000000000E+00
(PID.TID 0000.0001) %MON g__extforcing_g_qnet_min     =   0.0000000000000E+00
(PID.TID 0000.0001) %MON g__extforcing_g_qnet_mean    =   0.0000000000000E+00
(PID.TID 0000.0001) %MON g__extforcing_g_qnet_sd      =   0.0000000000000E+00
(PID.TID 0000.0001) %MON g__extforcing_g_qnet_del2    =   0.0000000000000E+00
(PID.TID 0000.0001) %MON g__extforcing_g_empmr_max    =   0.0000000000000E+00
(PID.TID 0000.0001) %MON g__extforcing_g_empmr_min    =   0.0000000000000E+00
(PID.TID 0000.0001) %MON g__extforcing_g_empmr_mean   =   0.0000000000000E+00
(PID.TID 0000.0001) %MON g__extforcing_g_empmr_sd     =   0.0000000000000E+00
(PID.TID 0000.0001) %MON g__extforcing_g_empmr_del2   =   0.0000000000000E+00
(PID.TID 0000.0001) %MON g__extforcing_g_fu_max       =   0.0000000000000E+00
(PID.TID 0000.0001) %MON g__extforcing_g_fu_min       =   0.0000000000000E+00
(PID.TID 0000.0001) %MON g__extforcing_g_fu_mean      =   0.0000000000000E+00
(PID.TID 0000.0001) %MON g__extforcing_g_fu_sd        =   0.0000000000000E+00
(PID.TID 0000.0001) %MON g__extforcing_g_fu_del2      =   0.0000000000000E+00
(PID.TID 0000.0001) %MON g__extforcing_g_fv_max       =   0.0000000000000E+00
(PID.TID 0000.0001) %MON g__extforcing_g_fv_min       =   0.0000000000000E+00
(PID.TID 0000.0001) %MON g__extforcing_g_fv_mean      =   0.0000000000000E+00
(PID.TID 0000.0001) %MON g__extforcing_g_fv_sd        =   0.0000000000000E+00
(PID.TID 0000.0001) %MON g__extforcing_g_fv_del2      =   0.0000000000000E+00
(PID.TID 0000.0001) %MON g__g_vcfl_g_uvel_max         =   2.1351976641504E-04
(PID.TID 0000.0001) %MON g__g_vcfl_g_vvel_max         =   3.6989305517965E-05
(PID.TID 0000.0001) %MON g__g_vcfl_g_wvel_max         =   2.8669590454828E-04
(PID.TID 0000.0001) %MON g__g_vcfl_g_W_hf_max         =   6.8807017091588E-04
(PID.TID 0000.0001) // =======================================================
(PID.TID 0000.0001) // End MONITOR dynamic field statistics
(PID.TID 0000.0001) // =======================================================
 cg2d: Sum(rhs),rhsMax =   1.75626190057053E-13  2.02381412968657E-02
 cg2d: Sum(rhs),rhsMax =  -1.26008925516174E-12  9.47667283578001E+00
(PID.TID 0000.0001) // =======================================================
(PID.TID 0000.0001) // Begin MONITOR dynamic field statistics
(PID.TID 0000.0001) // =======================================================
(PID.TID 0000.0001) %MON g__time_tsnumber             =                    20
(PID.TID 0000.0001) %MON g__time_secondsf             =   8.6400000000000E+05
(PID.TID 0000.0001) %MON g__dynstat_g_eta_max         =   4.6283260724441E-03
(PID.TID 0000.0001) %MON g__dynstat_g_eta_min         =  -2.1637352444850E-04
(PID.TID 0000.0001) %MON g__dynstat_g_eta_mean        =  -5.9497316429575E-19
(PID.TID 0000.0001) %MON g__dynstat_g_eta_sd          =   5.8434213110092E-05
(PID.TID 0000.0001) %MON g__dynstat_g_eta_del2        =   3.1728125580532E-06
(PID.TID 0000.0001) %MON g__dynstat_g_uvel_max        =   2.5594518998539E-04
(PID.TID 0000.0001) %MON g__dynstat_g_uvel_min        =  -5.6083023126866E-04
(PID.TID 0000.0001) %MON g__dynstat_g_uvel_mean       =   4.2906697307160E-08
(PID.TID 0000.0001) %MON g__dynstat_g_uvel_sd         =   1.1590739334045E-06
(PID.TID 0000.0001) %MON g__dynstat_g_uvel_del2       =   8.0183444013304E-08
(PID.TID 0000.0001) %MON g__dynstat_g_vvel_max        =   3.9456848622449E-04
(PID.TID 0000.0001) %MON g__dynstat_g_vvel_min        =  -3.0670278376201E-04
(PID.TID 0000.0001) %MON g__dynstat_g_vvel_mean       =  -2.0600064741493E-08
(PID.TID 0000.0001) %MON g__dynstat_g_vvel_sd         =   1.0199121863753E-06
(PID.TID 0000.0001) %MON g__dynstat_g_vvel_del2       =   6.0081714852371E-08
(PID.TID 0000.0001) %MON g__dynstat_g_wvel_max        =   4.0721315557017E-07
(PID.TID 0000.0001) %MON g__dynstat_g_wvel_min        =  -2.2978041271197E-07
(PID.TID 0000.0001) %MON g__dynstat_g_wvel_mean       =  -4.3219387821627E-27
(PID.TID 0000.0001) %MON g__dynstat_g_wvel_sd         =   1.3899227966978E-09
(PID.TID 0000.0001) %MON g__dynstat_g_wvel_del2       =   1.4940178440713E-10
(PID.TID 0000.0001) %MON g__dynstat_g_theta_max       =   1.0207703652730E+00
(PID.TID 0000.0001) %MON g__dynstat_g_theta_min       =  -1.1417855411153E-03
(PID.TID 0000.0001) %MON g__dynstat_g_theta_mean      =   3.2760771693439E-06
(PID.TID 0000.0001) %MON g__dynstat_g_theta_sd        =   1.5127167881211E-03
(PID.TID 0000.0001) %MON g__dynstat_g_theta_del2      =   6.0842610983372E-05
(PID.TID 0000.0001) %MON g__dynstat_g_salt_max        =   3.5090973080459E-03
(PID.TID 0000.0001) %MON g__dynstat_g_salt_min        =  -6.1671697671219E-03
(PID.TID 0000.0001) %MON g__dynstat_g_salt_mean       =   2.6143385957399E-09
(PID.TID 0000.0001) %MON g__dynstat_g_salt_sd         =   1.1559794322417E-05
(PID.TID 0000.0001) %MON g__dynstat_g_salt_del2       =   8.0915110866944E-07
(PID.TID 0000.0001) %MON g__dynstat_g_sst_max         =   1.0207703652730E+00
(PID.TID 0000.0001) %MON g__dynstat_g_sst_min         =  -1.2831478368548E-05
(PID.TID 0000.0001) %MON g__dynstat_g_sst_mean        =   1.8463877759123E-04
(PID.TID 0000.0001) %MON g__dynstat_g_sst_sd          =   1.2872655689841E-02
(PID.TID 0000.0001) %MON g__dynstat_g_sst_del2        =   6.3271273741844E-04
(PID.TID 0000.0001) %MON g__dynstat_g_sss_max         =   3.5090973080459E-03
(PID.TID 0000.0001) %MON g__dynstat_g_sss_min         =  -6.1671697671219E-03
(PID.TID 0000.0001) %MON g__dynstat_g_sss_mean        =   5.3877371537126E-08
(PID.TID 0000.0001) %MON g__dynstat_g_sss_sd          =   9.5267457277193E-05
(PID.TID 0000.0001) %MON g__dynstat_g_sss_del2        =   7.5845009196835E-06
(PID.TID 0000.0001) %MON g__extforcing_g_qnet_max     =   0.0000000000000E+00
(PID.TID 0000.0001) %MON g__extforcing_g_qnet_min     =   0.0000000000000E+00
(PID.TID 0000.0001) %MON g__extforcing_g_qnet_mean    =   0.0000000000000E+00
(PID.TID 0000.0001) %MON g__extforcing_g_qnet_sd      =   0.0000000000000E+00
(PID.TID 0000.0001) %MON g__extforcing_g_qnet_del2    =   0.0000000000000E+00
(PID.TID 0000.0001) %MON g__extforcing_g_empmr_max    =   0.0000000000000E+00
(PID.TID 0000.0001) %MON g__extforcing_g_empmr_min    =   0.0000000000000E+00
(PID.TID 0000.0001) %MON g__extforcing_g_empmr_mean   =   0.0000000000000E+00
(PID.TID 0000.0001) %MON g__extforcing_g_empmr_sd     =   0.0000000000000E+00
(PID.TID 0000.0001) %MON g__extforcing_g_empmr_del2   =   0.0000000000000E+00
(PID.TID 0000.0001) %MON g__extforcing_g_fu_max       =   0.0000000000000E+00
(PID.TID 0000.0001) %MON g__extforcing_g_fu_min       =   0.0000000000000E+00
(PID.TID 0000.0001) %MON g__extforcing_g_fu_mean      =   0.0000000000000E+00
(PID.TID 0000.0001) %MON g__extforcing_g_fu_sd        =   0.0000000000000E+00
(PID.TID 0000.0001) %MON g__extforcing_g_fu_del2      =   0.0000000000000E+00
(PID.TID 0000.0001) %MON g__extforcing_g_fv_max       =   0.0000000000000E+00
(PID.TID 0000.0001) %MON g__extforcing_g_fv_min       =   0.0000000000000E+00
(PID.TID 0000.0001) %MON g__extforcing_g_fv_mean      =   0.0000000000000E+00
(PID.TID 0000.0001) %MON g__extforcing_g_fv_sd        =   0.0000000000000E+00
(PID.TID 0000.0001) %MON g__extforcing_g_fv_del2      =   0.0000000000000E+00
(PID.TID 0000.0001) %MON g__g_vcfl_g_uvel_max         =   1.9765158277806E-04
(PID.TID 0000.0001) %MON g__g_vcfl_g_vvel_max         =   3.8329164377851E-05
(PID.TID 0000.0001) %MON g__g_vcfl_g_wvel_max         =   2.2695893752973E-04
(PID.TID 0000.0001) %MON g__g_vcfl_g_W_hf_max         =   5.4470145007134E-04
(PID.TID 0000.0001) // =======================================================
(PID.TID 0000.0001) // End MONITOR dynamic field statistics
(PID.TID 0000.0001) // =======================================================
 myIter=  20
(PID.TID 0000.0001) // Model state written, timestep        20
(PID.TID 0000.0001) 
 cg2d: Sum(rhs),rhsMax =   4.74495461532921E-13  1.97564647187660E-02
 cg2d: Sum(rhs),rhsMax =  -1.23858562295354E-12  1.03748401635909E+01
(PID.TID 0000.0001) // =======================================================
(PID.TID 0000.0001) // Begin MONITOR dynamic field statistics
(PID.TID 0000.0001) // =======================================================
(PID.TID 0000.0001) %MON g__time_tsnumber             =                    21
(PID.TID 0000.0001) %MON g__time_secondsf             =   9.0720000000000E+05
(PID.TID 0000.0001) %MON g__dynstat_g_eta_max         =   4.5496671745863E-03
(PID.TID 0000.0001) %MON g__dynstat_g_eta_min         =  -1.0389854402148E-04
(PID.TID 0000.0001) %MON g__dynstat_g_eta_mean        =  -1.0867709512863E-18
(PID.TID 0000.0001) %MON g__dynstat_g_eta_sd          =   5.7434311881363E-05
(PID.TID 0000.0001) %MON g__dynstat_g_eta_del2        =   3.0744897974645E-06
(PID.TID 0000.0001) %MON g__dynstat_g_uvel_max        =   1.8504677334372E-04
(PID.TID 0000.0001) %MON g__dynstat_g_uvel_min        =  -4.9949826251521E-04
(PID.TID 0000.0001) %MON g__dynstat_g_uvel_mean       =   4.2455372622403E-08
(PID.TID 0000.0001) %MON g__dynstat_g_uvel_sd         =   1.0381878839455E-06
(PID.TID 0000.0001) %MON g__dynstat_g_uvel_del2       =   7.4138827914677E-08
(PID.TID 0000.0001) %MON g__dynstat_g_vvel_max        =   4.0591132781511E-04
(PID.TID 0000.0001) %MON g__dynstat_g_vvel_min        =  -3.2431234227411E-04
(PID.TID 0000.0001) %MON g__dynstat_g_vvel_mean       =  -1.8782189245825E-08
(PID.TID 0000.0001) %MON g__dynstat_g_vvel_sd         =   1.0263861911826E-06
(PID.TID 0000.0001) %MON g__dynstat_g_vvel_del2       =   6.0226999701846E-08
(PID.TID 0000.0001) %MON g__dynstat_g_wvel_max        =   3.2332053266504E-07
(PID.TID 0000.0001) %MON g__dynstat_g_wvel_min        =  -1.9812494415866E-07
(PID.TID 0000.0001) %MON g__dynstat_g_wvel_mean       =  -1.0193793426391E-26
(PID.TID 0000.0001) %MON g__dynstat_g_wvel_sd         =   1.1547182343034E-09
(PID.TID 0000.0001) %MON g__dynstat_g_wvel_del2       =   1.3389844824642E-10
(PID.TID 0000.0001) %MON g__dynstat_g_theta_max       =   9.9234729677877E-01
(PID.TID 0000.0001) %MON g__dynstat_g_theta_min       =  -1.2311958878726E-03
(PID.TID 0000.0001) %MON g__dynstat_g_theta_mean      =   3.1743348558232E-06
(PID.TID 0000.0001) %MON g__dynstat_g_theta_sd        =   1.4681438159322E-03
(PID.TID 0000.0001) %MON g__dynstat_g_theta_del2      =   5.8704427634179E-05
(PID.TID 0000.0001) %MON g__dynstat_g_salt_max        =   3.5992819861172E-03
(PID.TID 0000.0001) %MON g__dynstat_g_salt_min        =  -6.2429695753497E-03
(PID.TID 0000.0001) %MON g__dynstat_g_salt_mean       =   2.9366893157137E-09
(PID.TID 0000.0001) %MON g__dynstat_g_salt_sd         =   1.1796618098832E-05
(PID.TID 0000.0001) %MON g__dynstat_g_salt_del2       =   8.3338738281303E-07
(PID.TID 0000.0001) %MON g__dynstat_g_sst_max         =   9.9234729677877E-01
(PID.TID 0000.0001) %MON g__dynstat_g_sst_min         =  -1.1261432088439E-05
(PID.TID 0000.0001) %MON g__dynstat_g_sst_mean        =   1.8002494784404E-04
(PID.TID 0000.0001) %MON g__dynstat_g_sst_sd          =   1.2515799115475E-02
(PID.TID 0000.0001) %MON g__dynstat_g_sst_del2        =   6.1439341122188E-04
(PID.TID 0000.0001) %MON g__dynstat_g_sss_max         =   3.5992819861172E-03
(PID.TID 0000.0001) %MON g__dynstat_g_sss_min         =  -6.2429695753497E-03
(PID.TID 0000.0001) %MON g__dynstat_g_sss_mean        =   5.6106401495143E-08
(PID.TID 0000.0001) %MON g__dynstat_g_sss_sd          =   9.6615270598599E-05
(PID.TID 0000.0001) %MON g__dynstat_g_sss_del2        =   7.7107497600255E-06
(PID.TID 0000.0001) %MON g__extforcing_g_qnet_max     =   0.0000000000000E+00
(PID.TID 0000.0001) %MON g__extforcing_g_qnet_min     =   0.0000000000000E+00
(PID.TID 0000.0001) %MON g__extforcing_g_qnet_mean    =   0.0000000000000E+00
(PID.TID 0000.0001) %MON g__extforcing_g_qnet_sd      =   0.0000000000000E+00
(PID.TID 0000.0001) %MON g__extforcing_g_qnet_del2    =   0.0000000000000E+00
(PID.TID 0000.0001) %MON g__extforcing_g_empmr_max    =   0.0000000000000E+00
(PID.TID 0000.0001) %MON g__extforcing_g_empmr_min    =   0.0000000000000E+00
(PID.TID 0000.0001) %MON g__extforcing_g_empmr_mean   =   0.0000000000000E+00
(PID.TID 0000.0001) %MON g__extforcing_g_empmr_sd     =   0.0000000000000E+00
(PID.TID 0000.0001) %MON g__extforcing_g_empmr_del2   =   0.0000000000000E+00
(PID.TID 0000.0001) %MON g__extforcing_g_fu_max       =   0.0000000000000E+00
(PID.TID 0000.0001) %MON g__extforcing_g_fu_min       =   0.0000000000000E+00
(PID.TID 0000.0001) %MON g__extforcing_g_fu_mean      =   0.0000000000000E+00
(PID.TID 0000.0001) %MON g__extforcing_g_fu_sd        =   0.0000000000000E+00
(PID.TID 0000.0001) %MON g__extforcing_g_fu_del2      =   0.0000000000000E+00
(PID.TID 0000.0001) %MON g__extforcing_g_fv_max       =   0.0000000000000E+00
(PID.TID 0000.0001) %MON g__extforcing_g_fv_min       =   0.0000000000000E+00
(PID.TID 0000.0001) %MON g__extforcing_g_fv_mean      =   0.0000000000000E+00
(PID.TID 0000.0001) %MON g__extforcing_g_fv_sd        =   0.0000000000000E+00
(PID.TID 0000.0001) %MON g__extforcing_g_fv_del2      =   0.0000000000000E+00
(PID.TID 0000.0001) %MON g__g_vcfl_g_uvel_max         =   1.7603655558598E-04
(PID.TID 0000.0001) %MON g__g_vcfl_g_vvel_max         =   3.9431030479726E-05
(PID.TID 0000.0001) %MON g__g_vcfl_g_wvel_max         =   1.6432290601329E-04
(PID.TID 0000.0001) %MON g__g_vcfl_g_W_hf_max         =   3.8865092306775E-04
(PID.TID 0000.0001) // =======================================================
(PID.TID 0000.0001) // End MONITOR dynamic field statistics
(PID.TID 0000.0001) // =======================================================
 cg2d: Sum(rhs),rhsMax =   8.93243095005641E-13  1.91471439668582E-02
 cg2d: Sum(rhs),rhsMax =  -7.55159823562224E-13  1.11482726022290E+01
(PID.TID 0000.0001) // =======================================================
(PID.TID 0000.0001) // Begin MONITOR dynamic field statistics
(PID.TID 0000.0001) // =======================================================
(PID.TID 0000.0001) %MON g__time_tsnumber             =                    22
(PID.TID 0000.0001) %MON g__time_secondsf             =   9.5040000000000E+05
(PID.TID 0000.0001) %MON g__dynstat_g_eta_max         =   4.4396918526695E-03
(PID.TID 0000.0001) %MON g__dynstat_g_eta_min         =  -5.3663793956475E-05
(PID.TID 0000.0001) %MON g__dynstat_g_eta_mean        =  -1.6423198574589E-18
(PID.TID 0000.0001) %MON g__dynstat_g_eta_sd          =   5.6080926357263E-05
(PID.TID 0000.0001) %MON g__dynstat_g_eta_del2        =   2.9646366912658E-06
(PID.TID 0000.0001) %MON g__dynstat_g_uvel_max        =   1.0751206051284E-04
(PID.TID 0000.0001) %MON g__dynstat_g_uvel_min        =  -4.2338058103872E-04
(PID.TID 0000.0001) %MON g__dynstat_g_uvel_mean       =   4.2123418000813E-08
(PID.TID 0000.0001) %MON g__dynstat_g_uvel_sd         =   9.1215175804012E-07
(PID.TID 0000.0001) %MON g__dynstat_g_uvel_del2       =   6.7407111714040E-08
(PID.TID 0000.0001) %MON g__dynstat_g_vvel_max        =   4.1417626957951E-04
(PID.TID 0000.0001) %MON g__dynstat_g_vvel_min        =  -3.3798989681296E-04
(PID.TID 0000.0001) %MON g__dynstat_g_vvel_mean       =  -1.6957658435922E-08
(PID.TID 0000.0001) %MON g__dynstat_g_vvel_sd         =   1.0242653449409E-06
(PID.TID 0000.0001) %MON g__dynstat_g_vvel_del2       =   5.9813017161740E-08
(PID.TID 0000.0001) %MON g__dynstat_g_wvel_max        =   2.3096370304062E-07
(PID.TID 0000.0001) %MON g__dynstat_g_wvel_min        =  -1.6834997842421E-07
(PID.TID 0000.0001) %MON g__dynstat_g_wvel_mean       =   4.7817474179873E-27
(PID.TID 0000.0001) %MON g__dynstat_g_wvel_sd         =   9.3711333339089E-10
(PID.TID 0000.0001) %MON g__dynstat_g_wvel_del2       =   1.1964388929753E-10
(PID.TID 0000.0001) %MON g__dynstat_g_theta_max       =   9.6243616814494E-01
(PID.TID 0000.0001) %MON g__dynstat_g_theta_min       =  -1.3240223249670E-03
(PID.TID 0000.0001) %MON g__dynstat_g_theta_mean      =   3.0621385538838E-06
(PID.TID 0000.0001) %MON g__dynstat_g_theta_sd        =   1.4210710142679E-03
(PID.TID 0000.0001) %MON g__dynstat_g_theta_del2      =   5.6430514921231E-05
(PID.TID 0000.0001) %MON g__dynstat_g_salt_max        =   3.6841308440418E-03
(PID.TID 0000.0001) %MON g__dynstat_g_salt_min        =  -6.2917600464693E-03
(PID.TID 0000.0001) %MON g__dynstat_g_salt_mean       =   3.2224791761392E-09
(PID.TID 0000.0001) %MON g__dynstat_g_salt_sd         =   1.1993046259911E-05
(PID.TID 0000.0001) %MON g__dynstat_g_salt_del2       =   8.5485385594296E-07
(PID.TID 0000.0001) %MON g__dynstat_g_sst_max         =   9.6243616814494E-01
(PID.TID 0000.0001) %MON g__dynstat_g_sst_min         =  -8.6639055582249E-06
(PID.TID 0000.0001) %MON g__dynstat_g_sst_mean        =   1.7506175998405E-04
(PID.TID 0000.0001) %MON g__dynstat_g_sst_sd          =   1.2140208279643E-02
(PID.TID 0000.0001) %MON g__dynstat_g_sst_del2        =   5.9522636801664E-04
(PID.TID 0000.0001) %MON g__dynstat_g_sss_max         =   3.6841308440418E-03
(PID.TID 0000.0001) %MON g__dynstat_g_sss_min         =  -6.2917600464693E-03
(PID.TID 0000.0001) %MON g__dynstat_g_sss_mean        =   5.8149813513487E-08
(PID.TID 0000.0001) %MON g__dynstat_g_sss_sd          =   9.7561791062921E-05
(PID.TID 0000.0001) %MON g__dynstat_g_sss_del2        =   7.8080492347364E-06
(PID.TID 0000.0001) %MON g__extforcing_g_qnet_max     =   0.0000000000000E+00
(PID.TID 0000.0001) %MON g__extforcing_g_qnet_min     =   0.0000000000000E+00
(PID.TID 0000.0001) %MON g__extforcing_g_qnet_mean    =   0.0000000000000E+00
(PID.TID 0000.0001) %MON g__extforcing_g_qnet_sd      =   0.0000000000000E+00
(PID.TID 0000.0001) %MON g__extforcing_g_qnet_del2    =   0.0000000000000E+00
(PID.TID 0000.0001) %MON g__extforcing_g_empmr_max    =   0.0000000000000E+00
(PID.TID 0000.0001) %MON g__extforcing_g_empmr_min    =   0.0000000000000E+00
(PID.TID 0000.0001) %MON g__extforcing_g_empmr_mean   =   0.0000000000000E+00
(PID.TID 0000.0001) %MON g__extforcing_g_empmr_sd     =   0.0000000000000E+00
(PID.TID 0000.0001) %MON g__extforcing_g_empmr_del2   =   0.0000000000000E+00
(PID.TID 0000.0001) %MON g__extforcing_g_fu_max       =   0.0000000000000E+00
(PID.TID 0000.0001) %MON g__extforcing_g_fu_min       =   0.0000000000000E+00
(PID.TID 0000.0001) %MON g__extforcing_g_fu_mean      =   0.0000000000000E+00
(PID.TID 0000.0001) %MON g__extforcing_g_fu_sd        =   0.0000000000000E+00
(PID.TID 0000.0001) %MON g__extforcing_g_fu_del2      =   0.0000000000000E+00
(PID.TID 0000.0001) %MON g__extforcing_g_fv_max       =   0.0000000000000E+00
(PID.TID 0000.0001) %MON g__extforcing_g_fv_min       =   0.0000000000000E+00
(PID.TID 0000.0001) %MON g__extforcing_g_fv_mean      =   0.0000000000000E+00
(PID.TID 0000.0001) %MON g__extforcing_g_fv_sd        =   0.0000000000000E+00
(PID.TID 0000.0001) %MON g__extforcing_g_fv_del2      =   0.0000000000000E+00
(PID.TID 0000.0001) %MON g__g_vcfl_g_uvel_max         =   1.4921064752608E-04
(PID.TID 0000.0001) %MON g__g_vcfl_g_vvel_max         =   4.0233903295273E-05
(PID.TID 0000.0001) %MON g__g_vcfl_g_wvel_max         =   1.6067602052843E-04
(PID.TID 0000.0001) %MON g__g_vcfl_g_W_hf_max         =   2.2890622647818E-04
(PID.TID 0000.0001) // =======================================================
(PID.TID 0000.0001) // End MONITOR dynamic field statistics
(PID.TID 0000.0001) // =======================================================
 cg2d: Sum(rhs),rhsMax =   1.40038292650171E-12  1.84733158879483E-02
 cg2d: Sum(rhs),rhsMax =  -9.23166057487101E-13  1.17644190526986E+01
(PID.TID 0000.0001) // =======================================================
(PID.TID 0000.0001) // Begin MONITOR dynamic field statistics
(PID.TID 0000.0001) // =======================================================
(PID.TID 0000.0001) %MON g__time_tsnumber             =                    23
(PID.TID 0000.0001) %MON g__time_secondsf             =   9.9360000000000E+05
(PID.TID 0000.0001) %MON g__dynstat_g_eta_max         =   4.3093019354591E-03
(PID.TID 0000.0001) %MON g__dynstat_g_eta_min         =  -5.6191310444322E-05
(PID.TID 0000.0001) %MON g__dynstat_g_eta_mean        =  -1.8823070990619E-18
(PID.TID 0000.0001) %MON g__dynstat_g_eta_sd          =   5.4500857177382E-05
(PID.TID 0000.0001) %MON g__dynstat_g_eta_del2        =   2.8492190730330E-06
(PID.TID 0000.0001) %MON g__dynstat_g_uvel_max        =   9.2019691352994E-05
(PID.TID 0000.0001) %MON g__dynstat_g_uvel_min        =  -3.3588870223316E-04
(PID.TID 0000.0001) %MON g__dynstat_g_uvel_mean       =   4.1890951111509E-08
(PID.TID 0000.0001) %MON g__dynstat_g_uvel_sd         =   7.9989400239529E-07
(PID.TID 0000.0001) %MON g__dynstat_g_uvel_del2       =   6.0502062290544E-08
(PID.TID 0000.0001) %MON g__dynstat_g_vvel_max        =   4.1875597691115E-04
(PID.TID 0000.0001) %MON g__dynstat_g_vvel_min        =  -3.4800800894384E-04
(PID.TID 0000.0001) %MON g__dynstat_g_vvel_mean       =  -1.5059564960510E-08
(PID.TID 0000.0001) %MON g__dynstat_g_vvel_sd         =   1.0164992962868E-06
(PID.TID 0000.0001) %MON g__dynstat_g_vvel_del2       =   5.8958229444221E-08
(PID.TID 0000.0001) %MON g__dynstat_g_wvel_max        =   1.3529269395058E-07
(PID.TID 0000.0001) %MON g__dynstat_g_wvel_min        =  -1.4131314626644E-07
(PID.TID 0000.0001) %MON g__dynstat_g_wvel_mean       =   3.8772294111792E-28
(PID.TID 0000.0001) %MON g__dynstat_g_wvel_sd         =   7.8537315866938E-10
(PID.TID 0000.0001) %MON g__dynstat_g_wvel_del2       =   1.0976639391011E-10
(PID.TID 0000.0001) %MON g__dynstat_g_theta_max       =   9.3294603907357E-01
(PID.TID 0000.0001) %MON g__dynstat_g_theta_min       =  -1.4155913446305E-03
(PID.TID 0000.0001) %MON g__dynstat_g_theta_mean      =   2.9503813441246E-06
(PID.TID 0000.0001) %MON g__dynstat_g_theta_sd        =   1.3748065327096E-03
(PID.TID 0000.0001) %MON g__dynstat_g_theta_del2      =   5.4195374055290E-05
(PID.TID 0000.0001) %MON g__dynstat_g_salt_max        =   3.7665678916466E-03
(PID.TID 0000.0001) %MON g__dynstat_g_salt_min        =  -6.3328654708220E-03
(PID.TID 0000.0001) %MON g__dynstat_g_salt_mean       =   3.4632894960600E-09
(PID.TID 0000.0001) %MON g__dynstat_g_salt_sd         =   1.2171426617689E-05
(PID.TID 0000.0001) %MON g__dynstat_g_salt_del2       =   8.7429605836415E-07
(PID.TID 0000.0001) %MON g__dynstat_g_sst_max         =   9.3294603907357E-01
(PID.TID 0000.0001) %MON g__dynstat_g_sst_min         =  -1.1228367742414E-05
(PID.TID 0000.0001) %MON g__dynstat_g_sst_mean        =   1.7012449171168E-04
(PID.TID 0000.0001) %MON g__dynstat_g_sst_sd          =   1.1770140446523E-02
(PID.TID 0000.0001) %MON g__dynstat_g_sst_del2        =   5.7637139147521E-04
(PID.TID 0000.0001) %MON g__dynstat_g_sss_max         =   3.7665678916466E-03
(PID.TID 0000.0001) %MON g__dynstat_g_sss_min         =  -6.3328654708220E-03
(PID.TID 0000.0001) %MON g__dynstat_g_sss_mean        =   5.9627166095160E-08
(PID.TID 0000.0001) %MON g__dynstat_g_sss_sd          =   9.8374046847478E-05
(PID.TID 0000.0001) %MON g__dynstat_g_sss_del2        =   7.8945098585537E-06
(PID.TID 0000.0001) %MON g__extforcing_g_qnet_max     =   0.0000000000000E+00
(PID.TID 0000.0001) %MON g__extforcing_g_qnet_min     =   0.0000000000000E+00
(PID.TID 0000.0001) %MON g__extforcing_g_qnet_mean    =   0.0000000000000E+00
(PID.TID 0000.0001) %MON g__extforcing_g_qnet_sd      =   0.0000000000000E+00
(PID.TID 0000.0001) %MON g__extforcing_g_qnet_del2    =   0.0000000000000E+00
(PID.TID 0000.0001) %MON g__extforcing_g_empmr_max    =   0.0000000000000E+00
(PID.TID 0000.0001) %MON g__extforcing_g_empmr_min    =   0.0000000000000E+00
(PID.TID 0000.0001) %MON g__extforcing_g_empmr_mean   =   0.0000000000000E+00
(PID.TID 0000.0001) %MON g__extforcing_g_empmr_sd     =   0.0000000000000E+00
(PID.TID 0000.0001) %MON g__extforcing_g_empmr_del2   =   0.0000000000000E+00
(PID.TID 0000.0001) %MON g__extforcing_g_fu_max       =   0.0000000000000E+00
(PID.TID 0000.0001) %MON g__extforcing_g_fu_min       =   0.0000000000000E+00
(PID.TID 0000.0001) %MON g__extforcing_g_fu_mean      =   0.0000000000000E+00
(PID.TID 0000.0001) %MON g__extforcing_g_fu_sd        =   0.0000000000000E+00
(PID.TID 0000.0001) %MON g__extforcing_g_fu_del2      =   0.0000000000000E+00
(PID.TID 0000.0001) %MON g__extforcing_g_fv_max       =   0.0000000000000E+00
(PID.TID 0000.0001) %MON g__extforcing_g_fv_min       =   0.0000000000000E+00
(PID.TID 0000.0001) %MON g__extforcing_g_fv_mean      =   0.0000000000000E+00
(PID.TID 0000.0001) %MON g__extforcing_g_fv_sd        =   0.0000000000000E+00
(PID.TID 0000.0001) %MON g__extforcing_g_fv_del2      =   0.0000000000000E+00
(PID.TID 0000.0001) %MON g__g_vcfl_g_uvel_max         =   1.1837616792425E-04
(PID.TID 0000.0001) %MON g__g_vcfl_g_vvel_max         =   4.0678785137704E-05
(PID.TID 0000.0001) %MON g__g_vcfl_g_wvel_max         =   1.8776148078290E-04
(PID.TID 0000.0001) %MON g__g_vcfl_g_W_hf_max         =   1.7402321760088E-04
(PID.TID 0000.0001) // =======================================================
(PID.TID 0000.0001) // End MONITOR dynamic field statistics
(PID.TID 0000.0001) // =======================================================
 cg2d: Sum(rhs),rhsMax =   1.66673017062246E-12  1.77957366610311E-02
 cg2d: Sum(rhs),rhsMax =  -9.18279341455275E-13  1.21959720875421E+01
(PID.TID 0000.0001) // =======================================================
(PID.TID 0000.0001) // Begin MONITOR dynamic field statistics
(PID.TID 0000.0001) // =======================================================
(PID.TID 0000.0001) %MON g__time_tsnumber             =                    24
(PID.TID 0000.0001) %MON g__time_secondsf             =   1.0368000000000E+06
(PID.TID 0000.0001) %MON g__dynstat_g_eta_max         =   4.1700875364107E-03
(PID.TID 0000.0001) %MON g__dynstat_g_eta_min         =  -6.2407711729717E-05
(PID.TID 0000.0001) %MON g__dynstat_g_eta_mean        =  -2.2616012706433E-18
(PID.TID 0000.0001) %MON g__dynstat_g_eta_sd          =   5.2816558134669E-05
(PID.TID 0000.0001) %MON g__dynstat_g_eta_del2        =   2.7432502539692E-06
(PID.TID 0000.0001) %MON g__dynstat_g_uvel_max        =   8.5715355906699E-05
(PID.TID 0000.0001) %MON g__dynstat_g_uvel_min        =  -2.4179879313142E-04
(PID.TID 0000.0001) %MON g__dynstat_g_uvel_mean       =   4.1676132159039E-08
(PID.TID 0000.0001) %MON g__dynstat_g_uvel_sd         =   7.2490885397656E-07
(PID.TID 0000.0001) %MON g__dynstat_g_uvel_del2       =   5.4680456291250E-08
(PID.TID 0000.0001) %MON g__dynstat_g_vvel_max        =   4.1918658216889E-04
(PID.TID 0000.0001) %MON g__dynstat_g_vvel_min        =  -3.5499855059644E-04
(PID.TID 0000.0001) %MON g__dynstat_g_vvel_mean       =  -1.3083341455224E-08
(PID.TID 0000.0001) %MON g__dynstat_g_vvel_sd         =   1.0063878730773E-06
(PID.TID 0000.0001) %MON g__dynstat_g_vvel_del2       =   5.9310061296434E-08
(PID.TID 0000.0001) %MON g__dynstat_g_wvel_max        =   7.8182057580839E-08
(PID.TID 0000.0001) %MON g__dynstat_g_wvel_min        =  -1.1695067107500E-07
(PID.TID 0000.0001) %MON g__dynstat_g_wvel_mean       =  -5.6230856395618E-27
(PID.TID 0000.0001) %MON g__dynstat_g_wvel_sd         =   7.4601934301905E-10
(PID.TID 0000.0001) %MON g__dynstat_g_wvel_del2       =   1.0800925787664E-10
(PID.TID 0000.0001) %MON g__dynstat_g_theta_max       =   9.0548027501838E-01
(PID.TID 0000.0001) %MON g__dynstat_g_theta_min       =  -1.4986760939723E-03
(PID.TID 0000.0001) %MON g__dynstat_g_theta_mean      =   2.8480095976972E-06
(PID.TID 0000.0001) %MON g__dynstat_g_theta_sd        =   1.3320470523780E-03
(PID.TID 0000.0001) %MON g__dynstat_g_theta_del2      =   5.2140075409162E-05
(PID.TID 0000.0001) %MON g__dynstat_g_salt_max        =   3.8492474657736E-03
(PID.TID 0000.0001) %MON g__dynstat_g_salt_min        =  -6.3846859539648E-03
(PID.TID 0000.0001) %MON g__dynstat_g_salt_mean       =   3.6464818404384E-09
(PID.TID 0000.0001) %MON g__dynstat_g_salt_sd         =   1.2352004897009E-05
(PID.TID 0000.0001) %MON g__dynstat_g_salt_del2       =   8.9234815340114E-07
(PID.TID 0000.0001) %MON g__dynstat_g_sst_max         =   9.0548027501838E-01
(PID.TID 0000.0001) %MON g__dynstat_g_sst_min         =  -1.2892004908217E-05
(PID.TID 0000.0001) %MON g__dynstat_g_sst_mean        =   1.6553392214865E-04
(PID.TID 0000.0001) %MON g__dynstat_g_sst_sd          =   1.1425899616863E-02
(PID.TID 0000.0001) %MON g__dynstat_g_sst_del2        =   5.5878893497429E-04
(PID.TID 0000.0001) %MON g__dynstat_g_sss_max         =   3.8492474657736E-03
(PID.TID 0000.0001) %MON g__dynstat_g_sss_min         =  -6.3846859539648E-03
(PID.TID 0000.0001) %MON g__dynstat_g_sss_mean        =   6.0195361913449E-08
(PID.TID 0000.0001) %MON g__dynstat_g_sss_sd          =   9.9306292581688E-05
(PID.TID 0000.0001) %MON g__dynstat_g_sss_del2        =   7.9879962237996E-06
(PID.TID 0000.0001) %MON g__extforcing_g_qnet_max     =   0.0000000000000E+00
(PID.TID 0000.0001) %MON g__extforcing_g_qnet_min     =   0.0000000000000E+00
(PID.TID 0000.0001) %MON g__extforcing_g_qnet_mean    =   0.0000000000000E+00
(PID.TID 0000.0001) %MON g__extforcing_g_qnet_sd      =   0.0000000000000E+00
(PID.TID 0000.0001) %MON g__extforcing_g_qnet_del2    =   0.0000000000000E+00
(PID.TID 0000.0001) %MON g__extforcing_g_empmr_max    =   0.0000000000000E+00
(PID.TID 0000.0001) %MON g__extforcing_g_empmr_min    =   0.0000000000000E+00
(PID.TID 0000.0001) %MON g__extforcing_g_empmr_mean   =   0.0000000000000E+00
(PID.TID 0000.0001) %MON g__extforcing_g_empmr_sd     =   0.0000000000000E+00
(PID.TID 0000.0001) %MON g__extforcing_g_empmr_del2   =   0.0000000000000E+00
(PID.TID 0000.0001) %MON g__extforcing_g_fu_max       =   0.0000000000000E+00
(PID.TID 0000.0001) %MON g__extforcing_g_fu_min       =   0.0000000000000E+00
(PID.TID 0000.0001) %MON g__extforcing_g_fu_mean      =   0.0000000000000E+00
(PID.TID 0000.0001) %MON g__extforcing_g_fu_sd        =   0.0000000000000E+00
(PID.TID 0000.0001) %MON g__extforcing_g_fu_del2      =   0.0000000000000E+00
(PID.TID 0000.0001) %MON g__extforcing_g_fv_max       =   0.0000000000000E+00
(PID.TID 0000.0001) %MON g__extforcing_g_fv_min       =   0.0000000000000E+00
(PID.TID 0000.0001) %MON g__extforcing_g_fv_mean      =   0.0000000000000E+00
(PID.TID 0000.0001) %MON g__extforcing_g_fv_sd        =   0.0000000000000E+00
(PID.TID 0000.0001) %MON g__extforcing_g_fv_del2      =   0.0000000000000E+00
(PID.TID 0000.0001) %MON g__g_vcfl_g_uvel_max         =   8.5216365865548E-05
(PID.TID 0000.0001) %MON g__g_vcfl_g_vvel_max         =   4.0720614985455E-05
(PID.TID 0000.0001) %MON g__g_vcfl_g_wvel_max         =   2.0046873462982E-04
(PID.TID 0000.0001) %MON g__g_vcfl_g_W_hf_max         =   1.4663319555218E-04
(PID.TID 0000.0001) // =======================================================
(PID.TID 0000.0001) // End MONITOR dynamic field statistics
(PID.TID 0000.0001) // =======================================================
 cg2d: Sum(rhs),rhsMax =   2.07279582212158E-12  1.71655358044672E-02
 cg2d: Sum(rhs),rhsMax =  -8.32391447436187E-13  1.24221987652398E+01
(PID.TID 0000.0001) // =======================================================
(PID.TID 0000.0001) // Begin MONITOR dynamic field statistics
(PID.TID 0000.0001) // =======================================================
(PID.TID 0000.0001) %MON g__time_tsnumber             =                    25
(PID.TID 0000.0001) %MON g__time_secondsf             =   1.0800000000000E+06
(PID.TID 0000.0001) %MON g__dynstat_g_eta_max         =   4.0328635778533E-03
(PID.TID 0000.0001) %MON g__dynstat_g_eta_min         =  -7.7991580190284E-05
(PID.TID 0000.0001) %MON g__dynstat_g_eta_mean        =  -2.4618806015645E-18
(PID.TID 0000.0001) %MON g__dynstat_g_eta_sd          =   5.1139142479844E-05
(PID.TID 0000.0001) %MON g__dynstat_g_eta_del2        =   2.6464687974410E-06
(PID.TID 0000.0001) %MON g__dynstat_g_uvel_max        =   7.6386374558299E-05
(PID.TID 0000.0001) %MON g__dynstat_g_uvel_min        =  -2.0856301141778E-04
(PID.TID 0000.0001) %MON g__dynstat_g_uvel_mean       =   4.1367902702039E-08
(PID.TID 0000.0001) %MON g__dynstat_g_uvel_sd         =   7.0488424899783E-07
(PID.TID 0000.0001) %MON g__dynstat_g_uvel_del2       =   5.5859675423518E-08
(PID.TID 0000.0001) %MON g__dynstat_g_vvel_max        =   4.1523424573887E-04
(PID.TID 0000.0001) %MON g__dynstat_g_vvel_min        =  -3.5980084838786E-04
(PID.TID 0000.0001) %MON g__dynstat_g_vvel_mean       =  -1.1088551988514E-08
(PID.TID 0000.0001) %MON g__dynstat_g_vvel_sd         =   9.9650953259604E-07
(PID.TID 0000.0001) %MON g__dynstat_g_vvel_del2       =   5.9809499583004E-08
(PID.TID 0000.0001) %MON g__dynstat_g_wvel_max        =   9.0239547988463E-08
(PID.TID 0000.0001) %MON g__dynstat_g_wvel_min        =  -1.1478543995028E-07
(PID.TID 0000.0001) %MON g__dynstat_g_wvel_mean       =   5.0607977347476E-27
(PID.TID 0000.0001) %MON g__dynstat_g_wvel_sd         =   8.1172137159969E-10
(PID.TID 0000.0001) %MON g__dynstat_g_wvel_del2       =   1.1434904610480E-10
(PID.TID 0000.0001) %MON g__dynstat_g_theta_max       =   8.8122701743713E-01
(PID.TID 0000.0001) %MON g__dynstat_g_theta_min       =  -1.5673412790832E-03
(PID.TID 0000.0001) %MON g__dynstat_g_theta_mean      =   2.7615203354872E-06
(PID.TID 0000.0001) %MON g__dynstat_g_theta_sd        =   1.2947191576958E-03
(PID.TID 0000.0001) %MON g__dynstat_g_theta_del2      =   5.0364406743548E-05
(PID.TID 0000.0001) %MON g__dynstat_g_salt_max        =   3.9346711022284E-03
(PID.TID 0000.0001) %MON g__dynstat_g_salt_min        =  -6.4628092821752E-03
(PID.TID 0000.0001) %MON g__dynstat_g_salt_mean       =   3.7562290736190E-09
(PID.TID 0000.0001) %MON g__dynstat_g_salt_sd         =   1.2551439161187E-05
(PID.TID 0000.0001) %MON g__dynstat_g_salt_del2       =   9.0993926334905E-07
(PID.TID 0000.0001) %MON g__dynstat_g_sst_max         =   8.8122701743713E-01
(PID.TID 0000.0001) %MON g__dynstat_g_sst_min         =  -1.6266547271355E-05
(PID.TID 0000.0001) %MON g__dynstat_g_sst_mean        =   1.6153448231713E-04
(PID.TID 0000.0001) %MON g__dynstat_g_sst_sd          =   1.1122478117068E-02
(PID.TID 0000.0001) %MON g__dynstat_g_sst_del2        =   5.4318307763707E-04
(PID.TID 0000.0001) %MON g__dynstat_g_sss_max         =   3.9346711022284E-03
(PID.TID 0000.0001) %MON g__dynstat_g_sss_min         =  -6.4628092821752E-03
(PID.TID 0000.0001) %MON g__dynstat_g_sss_mean        =   5.9622236250989E-08
(PID.TID 0000.0001) %MON g__dynstat_g_sss_sd          =   1.0057405497990E-04
(PID.TID 0000.0001) %MON g__dynstat_g_sss_del2        =   8.1037451655524E-06
(PID.TID 0000.0001) %MON g__extforcing_g_qnet_max     =   0.0000000000000E+00
(PID.TID 0000.0001) %MON g__extforcing_g_qnet_min     =   0.0000000000000E+00
(PID.TID 0000.0001) %MON g__extforcing_g_qnet_mean    =   0.0000000000000E+00
(PID.TID 0000.0001) %MON g__extforcing_g_qnet_sd      =   0.0000000000000E+00
(PID.TID 0000.0001) %MON g__extforcing_g_qnet_del2    =   0.0000000000000E+00
(PID.TID 0000.0001) %MON g__extforcing_g_empmr_max    =   0.0000000000000E+00
(PID.TID 0000.0001) %MON g__extforcing_g_empmr_min    =   0.0000000000000E+00
(PID.TID 0000.0001) %MON g__extforcing_g_empmr_mean   =   0.0000000000000E+00
(PID.TID 0000.0001) %MON g__extforcing_g_empmr_sd     =   0.0000000000000E+00
(PID.TID 0000.0001) %MON g__extforcing_g_empmr_del2   =   0.0000000000000E+00
(PID.TID 0000.0001) %MON g__extforcing_g_fu_max       =   0.0000000000000E+00
(PID.TID 0000.0001) %MON g__extforcing_g_fu_min       =   0.0000000000000E+00
(PID.TID 0000.0001) %MON g__extforcing_g_fu_mean      =   0.0000000000000E+00
(PID.TID 0000.0001) %MON g__extforcing_g_fu_sd        =   0.0000000000000E+00
(PID.TID 0000.0001) %MON g__extforcing_g_fu_del2      =   0.0000000000000E+00
(PID.TID 0000.0001) %MON g__extforcing_g_fv_max       =   0.0000000000000E+00
(PID.TID 0000.0001) %MON g__extforcing_g_fv_min       =   0.0000000000000E+00
(PID.TID 0000.0001) %MON g__extforcing_g_fv_mean      =   0.0000000000000E+00
(PID.TID 0000.0001) %MON g__extforcing_g_fv_sd        =   0.0000000000000E+00
(PID.TID 0000.0001) %MON g__extforcing_g_fv_del2      =   0.0000000000000E+00
(PID.TID 0000.0001) %MON g__g_vcfl_g_uvel_max         =   5.9236932327896E-05
(PID.TID 0000.0001) %MON g__g_vcfl_g_vvel_max         =   4.0336677195206E-05
(PID.TID 0000.0001) %MON g__g_vcfl_g_wvel_max         =   1.9760250032256E-04
(PID.TID 0000.0001) %MON g__g_vcfl_g_W_hf_max         =   1.9834924023409E-04
(PID.TID 0000.0001) // =======================================================
(PID.TID 0000.0001) // End MONITOR dynamic field statistics
(PID.TID 0000.0001) // =======================================================
 cg2d: Sum(rhs),rhsMax =   2.33016586186685E-12  1.66210827561752E-02
 cg2d: Sum(rhs),rhsMax =  -8.60617133113806E-13  1.24298971531140E+01
(PID.TID 0000.0001) // =======================================================
(PID.TID 0000.0001) // Begin MONITOR dynamic field statistics
(PID.TID 0000.0001) // =======================================================
(PID.TID 0000.0001) %MON g__time_tsnumber             =                    26
(PID.TID 0000.0001) %MON g__time_secondsf             =   1.1232000000000E+06
(PID.TID 0000.0001) %MON g__dynstat_g_eta_max         =   3.9068824067917E-03
(PID.TID 0000.0001) %MON g__dynstat_g_eta_min         =  -8.8757847518612E-05
(PID.TID 0000.0001) %MON g__dynstat_g_eta_mean        =  -2.7122575771935E-18
(PID.TID 0000.0001) %MON g__dynstat_g_eta_sd          =   4.9569295081181E-05
(PID.TID 0000.0001) %MON g__dynstat_g_eta_del2        =   2.5675397816827E-06
(PID.TID 0000.0001) %MON g__dynstat_g_uvel_max        =   8.3705801622599E-05
(PID.TID 0000.0001) %MON g__dynstat_g_uvel_min        =  -2.1199203644360E-04
(PID.TID 0000.0001) %MON g__dynstat_g_uvel_mean       =   4.0858247851307E-08
(PID.TID 0000.0001) %MON g__dynstat_g_uvel_sd         =   7.3743982889765E-07
(PID.TID 0000.0001) %MON g__dynstat_g_uvel_del2       =   6.4195591140941E-08
(PID.TID 0000.0001) %MON g__dynstat_g_vvel_max        =   4.0693940861267E-04
(PID.TID 0000.0001) %MON g__dynstat_g_vvel_min        =  -3.6329387163993E-04
(PID.TID 0000.0001) %MON g__dynstat_g_vvel_mean       =  -9.1866945817918E-09
(PID.TID 0000.0001) %MON g__dynstat_g_vvel_sd         =   9.8809560918825E-07
(PID.TID 0000.0001) %MON g__dynstat_g_vvel_del2       =   6.0393428607899E-08
(PID.TID 0000.0001) %MON g__dynstat_g_wvel_max        =   1.0424264339749E-07
(PID.TID 0000.0001) %MON g__dynstat_g_wvel_min        =  -1.7699775931977E-07
(PID.TID 0000.0001) %MON g__dynstat_g_wvel_mean       =   3.5736562016593E-27
(PID.TID 0000.0001) %MON g__dynstat_g_wvel_sd         =   9.2425076061812E-10
(PID.TID 0000.0001) %MON g__dynstat_g_wvel_del2       =   1.2376232063772E-10
(PID.TID 0000.0001) %MON g__dynstat_g_theta_max       =   8.6092262972684E-01
(PID.TID 0000.0001) %MON g__dynstat_g_theta_min       =  -1.6187205832799E-03
(PID.TID 0000.0001) %MON g__dynstat_g_theta_mean      =   2.6949162214554E-06
(PID.TID 0000.0001) %MON g__dynstat_g_theta_sd        =   1.2639649042636E-03
(PID.TID 0000.0001) %MON g__dynstat_g_theta_del2      =   4.8927661206538E-05
(PID.TID 0000.0001) %MON g__dynstat_g_salt_max        =   4.0252044948212E-03
(PID.TID 0000.0001) %MON g__dynstat_g_salt_min        =  -6.5788363200607E-03
(PID.TID 0000.0001) %MON g__dynstat_g_salt_mean       =   3.7757752108151E-09
(PID.TID 0000.0001) %MON g__dynstat_g_salt_sd         =   1.2782459343856E-05
(PID.TID 0000.0001) %MON g__dynstat_g_salt_del2       =   9.2761508487071E-07
(PID.TID 0000.0001) %MON g__dynstat_g_sst_max         =   8.6092262972684E-01
(PID.TID 0000.0001) %MON g__dynstat_g_sst_min         =  -2.2450367935149E-05
(PID.TID 0000.0001) %MON g__dynstat_g_sst_mean        =   1.5828520233899E-04
(PID.TID 0000.0001) %MON g__dynstat_g_sst_sd          =   1.0869133241668E-02
(PID.TID 0000.0001) %MON g__dynstat_g_sst_del2        =   5.2998910668839E-04
(PID.TID 0000.0001) %MON g__dynstat_g_sss_max         =   4.0252044948212E-03
(PID.TID 0000.0001) %MON g__dynstat_g_sss_min         =  -6.5788363200607E-03
(PID.TID 0000.0001) %MON g__dynstat_g_sss_mean        =   5.7749588503660E-08
(PID.TID 0000.0001) %MON g__dynstat_g_sss_sd          =   1.0233947186018E-04
(PID.TID 0000.0001) %MON g__dynstat_g_sss_del2        =   8.2532192373129E-06
(PID.TID 0000.0001) %MON g__extforcing_g_qnet_max     =   0.0000000000000E+00
(PID.TID 0000.0001) %MON g__extforcing_g_qnet_min     =   0.0000000000000E+00
(PID.TID 0000.0001) %MON g__extforcing_g_qnet_mean    =   0.0000000000000E+00
(PID.TID 0000.0001) %MON g__extforcing_g_qnet_sd      =   0.0000000000000E+00
(PID.TID 0000.0001) %MON g__extforcing_g_qnet_del2    =   0.0000000000000E+00
(PID.TID 0000.0001) %MON g__extforcing_g_empmr_max    =   0.0000000000000E+00
(PID.TID 0000.0001) %MON g__extforcing_g_empmr_min    =   0.0000000000000E+00
(PID.TID 0000.0001) %MON g__extforcing_g_empmr_mean   =   0.0000000000000E+00
(PID.TID 0000.0001) %MON g__extforcing_g_empmr_sd     =   0.0000000000000E+00
(PID.TID 0000.0001) %MON g__extforcing_g_empmr_del2   =   0.0000000000000E+00
(PID.TID 0000.0001) %MON g__extforcing_g_fu_max       =   0.0000000000000E+00
(PID.TID 0000.0001) %MON g__extforcing_g_fu_min       =   0.0000000000000E+00
(PID.TID 0000.0001) %MON g__extforcing_g_fu_mean      =   0.0000000000000E+00
(PID.TID 0000.0001) %MON g__extforcing_g_fu_sd        =   0.0000000000000E+00
(PID.TID 0000.0001) %MON g__extforcing_g_fu_del2      =   0.0000000000000E+00
(PID.TID 0000.0001) %MON g__extforcing_g_fv_max       =   0.0000000000000E+00
(PID.TID 0000.0001) %MON g__extforcing_g_fv_min       =   0.0000000000000E+00
(PID.TID 0000.0001) %MON g__extforcing_g_fv_mean      =   0.0000000000000E+00
(PID.TID 0000.0001) %MON g__extforcing_g_fv_sd        =   0.0000000000000E+00
(PID.TID 0000.0001) %MON g__extforcing_g_fv_del2      =   0.0000000000000E+00
(PID.TID 0000.0001) %MON g__g_vcfl_g_uvel_max         =   7.4711667102251E-05
(PID.TID 0000.0001) %MON g__g_vcfl_g_vvel_max         =   3.9530900284992E-05
(PID.TID 0000.0001) %MON g__g_vcfl_g_wvel_max         =   1.8141288632881E-04
(PID.TID 0000.0001) %MON g__g_vcfl_g_W_hf_max         =   3.0585212810457E-04
(PID.TID 0000.0001) // =======================================================
(PID.TID 0000.0001) // End MONITOR dynamic field statistics
(PID.TID 0000.0001) // =======================================================
 cg2d: Sum(rhs),rhsMax =   2.63737526080829E-12  1.61881300980623E-02
 cg2d: Sum(rhs),rhsMax =  -1.07162542728467E-12  1.22139653314387E+01
(PID.TID 0000.0001) // =======================================================
(PID.TID 0000.0001) // Begin MONITOR dynamic field statistics
(PID.TID 0000.0001) // =======================================================
(PID.TID 0000.0001) %MON g__time_tsnumber             =                    27
(PID.TID 0000.0001) %MON g__time_secondsf             =   1.1664000000000E+06
(PID.TID 0000.0001) %MON g__dynstat_g_eta_max         =   3.7995990573347E-03
(PID.TID 0000.0001) %MON g__dynstat_g_eta_min         =  -9.3252464287564E-05
(PID.TID 0000.0001) %MON g__dynstat_g_eta_mean        =  -2.8004537955481E-18
(PID.TID 0000.0001) %MON g__dynstat_g_eta_sd          =   4.8199264562430E-05
(PID.TID 0000.0001) %MON g__dynstat_g_eta_del2        =   2.5043252156688E-06
(PID.TID 0000.0001) %MON g__dynstat_g_uvel_max        =   9.8931491792699E-05
(PID.TID 0000.0001) %MON g__dynstat_g_uvel_min        =  -2.7856644897859E-04
(PID.TID 0000.0001) %MON g__dynstat_g_uvel_mean       =   4.0067789646320E-08
(PID.TID 0000.0001) %MON g__dynstat_g_uvel_sd         =   8.0117297021907E-07
(PID.TID 0000.0001) %MON g__dynstat_g_uvel_del2       =   7.1050776024829E-08
(PID.TID 0000.0001) %MON g__dynstat_g_vvel_max        =   3.9462402666061E-04
(PID.TID 0000.0001) %MON g__dynstat_g_vvel_min        =  -3.6624697856748E-04
(PID.TID 0000.0001) %MON g__dynstat_g_vvel_mean       =  -7.5202075639663E-09
(PID.TID 0000.0001) %MON g__dynstat_g_vvel_sd         =   9.8105729993354E-07
(PID.TID 0000.0001) %MON g__dynstat_g_vvel_del2       =   6.1680932136623E-08
(PID.TID 0000.0001) %MON g__dynstat_g_wvel_max        =   1.1895085651652E-07
(PID.TID 0000.0001) %MON g__dynstat_g_wvel_min        =  -2.2573515254381E-07
(PID.TID 0000.0001) %MON g__dynstat_g_wvel_mean       =  -3.2862327087917E-27
(PID.TID 0000.0001) %MON g__dynstat_g_wvel_sd         =   1.0320372746618E-09
(PID.TID 0000.0001) %MON g__dynstat_g_wvel_del2       =   1.3407036169973E-10
(PID.TID 0000.0001) %MON g__dynstat_g_theta_max       =   8.4487406639519E-01
(PID.TID 0000.0001) %MON g__dynstat_g_theta_min       =  -1.6531949904382E-03
(PID.TID 0000.0001) %MON g__dynstat_g_theta_mean      =   2.6499625210991E-06
(PID.TID 0000.0001) %MON g__dynstat_g_theta_sd        =   1.2402240526960E-03
(PID.TID 0000.0001) %MON g__dynstat_g_theta_del2      =   4.7853725277934E-05
(PID.TID 0000.0001) %MON g__dynstat_g_salt_max        =   4.1229904088674E-03
(PID.TID 0000.0001) %MON g__dynstat_g_salt_min        =  -6.7398823580715E-03
(PID.TID 0000.0001) %MON g__dynstat_g_salt_mean       =   3.6903491626881E-09
(PID.TID 0000.0001) %MON g__dynstat_g_salt_sd         =   1.3054132417594E-05
(PID.TID 0000.0001) %MON g__dynstat_g_salt_del2       =   9.4590353369211E-07
(PID.TID 0000.0001) %MON g__dynstat_g_sst_max         =   8.4487406639519E-01
(PID.TID 0000.0001) %MON g__dynstat_g_sst_min         =  -3.2545341307186E-05
(PID.TID 0000.0001) %MON g__dynstat_g_sst_mean        =   1.5586206109492E-04
(PID.TID 0000.0001) %MON g__dynstat_g_sst_sd          =   1.0669700488619E-02
(PID.TID 0000.0001) %MON g__dynstat_g_sst_del2        =   5.1937275453886E-04
(PID.TID 0000.0001) %MON g__dynstat_g_sss_max         =   4.1229904088674E-03
(PID.TID 0000.0001) %MON g__dynstat_g_sss_min         =  -6.7398823580715E-03
(PID.TID 0000.0001) %MON g__dynstat_g_sss_mean        =   5.4543755640909E-08
(PID.TID 0000.0001) %MON g__dynstat_g_sss_sd          =   1.0470618951045E-04
(PID.TID 0000.0001) %MON g__dynstat_g_sss_del2        =   8.4444552417519E-06
(PID.TID 0000.0001) %MON g__extforcing_g_qnet_max     =   0.0000000000000E+00
(PID.TID 0000.0001) %MON g__extforcing_g_qnet_min     =   0.0000000000000E+00
(PID.TID 0000.0001) %MON g__extforcing_g_qnet_mean    =   0.0000000000000E+00
(PID.TID 0000.0001) %MON g__extforcing_g_qnet_sd      =   0.0000000000000E+00
(PID.TID 0000.0001) %MON g__extforcing_g_qnet_del2    =   0.0000000000000E+00
(PID.TID 0000.0001) %MON g__extforcing_g_empmr_max    =   0.0000000000000E+00
(PID.TID 0000.0001) %MON g__extforcing_g_empmr_min    =   0.0000000000000E+00
(PID.TID 0000.0001) %MON g__extforcing_g_empmr_mean   =   0.0000000000000E+00
(PID.TID 0000.0001) %MON g__extforcing_g_empmr_sd     =   0.0000000000000E+00
(PID.TID 0000.0001) %MON g__extforcing_g_empmr_del2   =   0.0000000000000E+00
(PID.TID 0000.0001) %MON g__extforcing_g_fu_max       =   0.0000000000000E+00
(PID.TID 0000.0001) %MON g__extforcing_g_fu_min       =   0.0000000000000E+00
(PID.TID 0000.0001) %MON g__extforcing_g_fu_mean      =   0.0000000000000E+00
(PID.TID 0000.0001) %MON g__extforcing_g_fu_sd        =   0.0000000000000E+00
(PID.TID 0000.0001) %MON g__extforcing_g_fu_del2      =   0.0000000000000E+00
(PID.TID 0000.0001) %MON g__extforcing_g_fv_max       =   0.0000000000000E+00
(PID.TID 0000.0001) %MON g__extforcing_g_fv_min       =   0.0000000000000E+00
(PID.TID 0000.0001) %MON g__extforcing_g_fv_mean      =   0.0000000000000E+00
(PID.TID 0000.0001) %MON g__extforcing_g_fv_sd        =   0.0000000000000E+00
(PID.TID 0000.0001) %MON g__extforcing_g_fv_del2      =   0.0000000000000E+00
(PID.TID 0000.0001) %MON g__g_vcfl_g_uvel_max         =   9.8174271784407E-05
(PID.TID 0000.0001) %MON g__g_vcfl_g_vvel_max         =   3.8334559685840E-05
(PID.TID 0000.0001) %MON g__g_vcfl_g_wvel_max         =   1.6252930983154E-04
(PID.TID 0000.0001) %MON g__g_vcfl_g_W_hf_max         =   3.9007034359571E-04
(PID.TID 0000.0001) // =======================================================
(PID.TID 0000.0001) // End MONITOR dynamic field statistics
(PID.TID 0000.0001) // =======================================================
 cg2d: Sum(rhs),rhsMax =   2.77586064104828E-12  1.58816732171817E-02
 cg2d: Sum(rhs),rhsMax =  -1.22979404437729E-12  1.17775992285089E+01
(PID.TID 0000.0001) // =======================================================
(PID.TID 0000.0001) // Begin MONITOR dynamic field statistics
(PID.TID 0000.0001) // =======================================================
(PID.TID 0000.0001) %MON g__time_tsnumber             =                    28
(PID.TID 0000.0001) %MON g__time_secondsf             =   1.2096000000000E+06
(PID.TID 0000.0001) %MON g__dynstat_g_eta_max         =   3.7167211722681E-03
(PID.TID 0000.0001) %MON g__dynstat_g_eta_min         =  -9.1046576263364E-05
(PID.TID 0000.0001) %MON g__dynstat_g_eta_mean        =  -2.9381053690967E-18
(PID.TID 0000.0001) %MON g__dynstat_g_eta_sd          =   4.7111225998809E-05
(PID.TID 0000.0001) %MON g__dynstat_g_eta_del2        =   2.4631472373312E-06
(PID.TID 0000.0001) %MON g__dynstat_g_uvel_max        =   1.0908554928605E-04
(PID.TID 0000.0001) %MON g__dynstat_g_uvel_min        =  -3.3437852520412E-04
(PID.TID 0000.0001) %MON g__dynstat_g_uvel_mean       =   3.8961296960415E-08
(PID.TID 0000.0001) %MON g__dynstat_g_uvel_sd         =   8.7130291546394E-07
(PID.TID 0000.0001) %MON g__dynstat_g_uvel_del2       =   7.7345565890485E-08
(PID.TID 0000.0001) %MON g__dynstat_g_vvel_max        =   3.7887167653336E-04
(PID.TID 0000.0001) %MON g__dynstat_g_vvel_min        =  -3.6921383253857E-04
(PID.TID 0000.0001) %MON g__dynstat_g_vvel_mean       =  -6.2380634924022E-09
(PID.TID 0000.0001) %MON g__dynstat_g_vvel_sd         =   9.7453908476532E-07
(PID.TID 0000.0001) %MON g__dynstat_g_vvel_del2       =   6.3214735099896E-08
(PID.TID 0000.0001) %MON g__dynstat_g_wvel_max        =   1.3131187583122E-07
(PID.TID 0000.0001) %MON g__dynstat_g_wvel_min        =  -2.5982158048328E-07
(PID.TID 0000.0001) %MON g__dynstat_g_wvel_mean       =  -4.6664501393033E-27
(PID.TID 0000.0001) %MON g__dynstat_g_wvel_sd         =   1.1080097732677E-09
(PID.TID 0000.0001) %MON g__dynstat_g_wvel_del2       =   1.4229533444781E-10
(PID.TID 0000.0001) %MON g__dynstat_g_theta_max       =   8.3302072750867E-01
(PID.TID 0000.0001) %MON g__dynstat_g_theta_min       =  -1.6731108338018E-03
(PID.TID 0000.0001) %MON g__dynstat_g_theta_mean      =   2.6265944058893E-06
(PID.TID 0000.0001) %MON g__dynstat_g_theta_sd        =   1.2233650819922E-03
(PID.TID 0000.0001) %MON g__dynstat_g_theta_del2      =   4.7133591767538E-05
(PID.TID 0000.0001) %MON g__dynstat_g_salt_max        =   4.2298037290731E-03
(PID.TID 0000.0001) %MON g__dynstat_g_salt_min        =  -6.9486254513403E-03
(PID.TID 0000.0001) %MON g__dynstat_g_salt_mean       =   3.4899713308288E-09
(PID.TID 0000.0001) %MON g__dynstat_g_salt_sd         =   1.3372236245687E-05
(PID.TID 0000.0001) %MON g__dynstat_g_salt_del2       =   9.6520521192918E-07
(PID.TID 0000.0001) %MON g__dynstat_g_sst_max         =   8.3302072750867E-01
(PID.TID 0000.0001) %MON g__dynstat_g_sst_min         =  -4.0006188295601E-05
(PID.TID 0000.0001) %MON g__dynstat_g_sst_mean        =   1.5426810193295E-04
(PID.TID 0000.0001) %MON g__dynstat_g_sst_sd          =   1.0523389726478E-02
(PID.TID 0000.0001) %MON g__dynstat_g_sst_del2        =   5.1128844781816E-04
(PID.TID 0000.0001) %MON g__dynstat_g_sss_max         =   4.2298037290731E-03
(PID.TID 0000.0001) %MON g__dynstat_g_sss_min         =  -6.9486254513403E-03
(PID.TID 0000.0001) %MON g__dynstat_g_sss_mean        =   5.0091952352995E-08
(PID.TID 0000.0001) %MON g__dynstat_g_sss_sd          =   1.0772074410062E-04
(PID.TID 0000.0001) %MON g__dynstat_g_sss_del2        =   8.6807327360484E-06
(PID.TID 0000.0001) %MON g__extforcing_g_qnet_max     =   0.0000000000000E+00
(PID.TID 0000.0001) %MON g__extforcing_g_qnet_min     =   0.0000000000000E+00
(PID.TID 0000.0001) %MON g__extforcing_g_qnet_mean    =   0.0000000000000E+00
(PID.TID 0000.0001) %MON g__extforcing_g_qnet_sd      =   0.0000000000000E+00
(PID.TID 0000.0001) %MON g__extforcing_g_qnet_del2    =   0.0000000000000E+00
(PID.TID 0000.0001) %MON g__extforcing_g_empmr_max    =   0.0000000000000E+00
(PID.TID 0000.0001) %MON g__extforcing_g_empmr_min    =   0.0000000000000E+00
(PID.TID 0000.0001) %MON g__extforcing_g_empmr_mean   =   0.0000000000000E+00
(PID.TID 0000.0001) %MON g__extforcing_g_empmr_sd     =   0.0000000000000E+00
(PID.TID 0000.0001) %MON g__extforcing_g_empmr_del2   =   0.0000000000000E+00
(PID.TID 0000.0001) %MON g__extforcing_g_fu_max       =   0.0000000000000E+00
(PID.TID 0000.0001) %MON g__extforcing_g_fu_min       =   0.0000000000000E+00
(PID.TID 0000.0001) %MON g__extforcing_g_fu_mean      =   0.0000000000000E+00
(PID.TID 0000.0001) %MON g__extforcing_g_fu_sd        =   0.0000000000000E+00
(PID.TID 0000.0001) %MON g__extforcing_g_fu_del2      =   0.0000000000000E+00
(PID.TID 0000.0001) %MON g__extforcing_g_fv_max       =   0.0000000000000E+00
(PID.TID 0000.0001) %MON g__extforcing_g_fv_min       =   0.0000000000000E+00
(PID.TID 0000.0001) %MON g__extforcing_g_fv_mean      =   0.0000000000000E+00
(PID.TID 0000.0001) %MON g__extforcing_g_fv_sd        =   0.0000000000000E+00
(PID.TID 0000.0001) %MON g__extforcing_g_fv_del2      =   0.0000000000000E+00
(PID.TID 0000.0001) %MON g__g_vcfl_g_uvel_max         =   1.1784394112294E-04
(PID.TID 0000.0001) %MON g__g_vcfl_g_vvel_max         =   3.6804345189639E-05
(PID.TID 0000.0001) %MON g__g_vcfl_g_wvel_max         =   1.8707153794796E-04
(PID.TID 0000.0001) %MON g__g_vcfl_g_W_hf_max         =   4.4897169107511E-04
(PID.TID 0000.0001) // =======================================================
(PID.TID 0000.0001) // End MONITOR dynamic field statistics
(PID.TID 0000.0001) // =======================================================
 cg2d: Sum(rhs),rhsMax =   2.94372270593980E-12  1.57080783482819E-02
 cg2d: Sum(rhs),rhsMax =  -8.29017410275412E-13  1.11321543547212E+01
(PID.TID 0000.0001) // =======================================================
(PID.TID 0000.0001) // Begin MONITOR dynamic field statistics
(PID.TID 0000.0001) // =======================================================
(PID.TID 0000.0001) %MON g__time_tsnumber             =                    29
(PID.TID 0000.0001) %MON g__time_secondsf             =   1.2528000000000E+06
(PID.TID 0000.0001) %MON g__dynstat_g_eta_max         =   3.6622950202922E-03
(PID.TID 0000.0001) %MON g__dynstat_g_eta_min         =  -8.2726484296367E-05
(PID.TID 0000.0001) %MON g__dynstat_g_eta_mean        =  -3.0238563634364E-18
(PID.TID 0000.0001) %MON g__dynstat_g_eta_sd          =   4.6371495210531E-05
(PID.TID 0000.0001) %MON g__dynstat_g_eta_del2        =   2.4446512584079E-06
(PID.TID 0000.0001) %MON g__dynstat_g_uvel_max        =   1.4971758678808E-04
(PID.TID 0000.0001) %MON g__dynstat_g_uvel_min        =  -3.7751348489447E-04
(PID.TID 0000.0001) %MON g__dynstat_g_uvel_mean       =   3.7553300467840E-08
(PID.TID 0000.0001) %MON g__dynstat_g_uvel_sd         =   9.2959246193373E-07
(PID.TID 0000.0001) %MON g__dynstat_g_uvel_del2       =   8.2399035776473E-08
(PID.TID 0000.0001) %MON g__dynstat_g_vvel_max        =   3.6048982147541E-04
(PID.TID 0000.0001) %MON g__dynstat_g_vvel_min        =  -3.7248134440436E-04
(PID.TID 0000.0001) %MON g__dynstat_g_vvel_mean       =  -5.4725645172983E-09
(PID.TID 0000.0001) %MON g__dynstat_g_vvel_sd         =   9.6764033906879E-07
(PID.TID 0000.0001) %MON g__dynstat_g_vvel_del2       =   6.4525238318528E-08
(PID.TID 0000.0001) %MON g__dynstat_g_wvel_max        =   1.4101391869897E-07
(PID.TID 0000.0001) %MON g__dynstat_g_wvel_min        =  -2.7870116337565E-07
(PID.TID 0000.0001) %MON g__dynstat_g_wvel_mean       =  -1.9712176015010E-27
(PID.TID 0000.0001) %MON g__dynstat_g_wvel_sd         =   1.1423840431900E-09
(PID.TID 0000.0001) %MON g__dynstat_g_wvel_del2       =   1.4822289513596E-10
(PID.TID 0000.0001) %MON g__dynstat_g_theta_max       =   8.2501701480677E-01
(PID.TID 0000.0001) %MON g__dynstat_g_theta_min       =  -1.6815501313518E-03
(PID.TID 0000.0001) %MON g__dynstat_g_theta_mean      =   2.6233640937878E-06
(PID.TID 0000.0001) %MON g__dynstat_g_theta_sd        =   1.2128293233609E-03
(PID.TID 0000.0001) %MON g__dynstat_g_theta_del2      =   4.6730828393054E-05
(PID.TID 0000.0001) %MON g__dynstat_g_salt_max        =   4.3468975134037E-03
(PID.TID 0000.0001) %MON g__dynstat_g_salt_min        =  -7.2037491061347E-03
(PID.TID 0000.0001) %MON g__dynstat_g_salt_mean       =   3.1716935708829E-09
(PID.TID 0000.0001) %MON g__dynstat_g_salt_sd         =   1.3739520095350E-05
(PID.TID 0000.0001) %MON g__dynstat_g_salt_del2       =   9.8561771271975E-07
(PID.TID 0000.0001) %MON g__dynstat_g_sst_max         =   8.2501701480677E-01
(PID.TID 0000.0001) %MON g__dynstat_g_sst_min         =  -4.4140379762845E-05
(PID.TID 0000.0001) %MON g__dynstat_g_sst_mean        =   1.5344810869875E-04
(PID.TID 0000.0001) %MON g__dynstat_g_sst_sd          =   1.0425829084597E-02
(PID.TID 0000.0001) %MON g__dynstat_g_sst_del2        =   5.0551259784797E-04
(PID.TID 0000.0001) %MON g__dynstat_g_sss_max         =   4.3468975134037E-03
(PID.TID 0000.0001) %MON g__dynstat_g_sss_min         =  -7.2037491061347E-03
(PID.TID 0000.0001) %MON g__dynstat_g_sss_mean        =   4.4582278690804E-08
(PID.TID 0000.0001) %MON g__dynstat_g_sss_sd          =   1.1137776855886E-04
(PID.TID 0000.0001) %MON g__dynstat_g_sss_del2        =   8.9613548534516E-06
(PID.TID 0000.0001) %MON g__extforcing_g_qnet_max     =   0.0000000000000E+00
(PID.TID 0000.0001) %MON g__extforcing_g_qnet_min     =   0.0000000000000E+00
(PID.TID 0000.0001) %MON g__extforcing_g_qnet_mean    =   0.0000000000000E+00
(PID.TID 0000.0001) %MON g__extforcing_g_qnet_sd      =   0.0000000000000E+00
(PID.TID 0000.0001) %MON g__extforcing_g_qnet_del2    =   0.0000000000000E+00
(PID.TID 0000.0001) %MON g__extforcing_g_empmr_max    =   0.0000000000000E+00
(PID.TID 0000.0001) %MON g__extforcing_g_empmr_min    =   0.0000000000000E+00
(PID.TID 0000.0001) %MON g__extforcing_g_empmr_mean   =   0.0000000000000E+00
(PID.TID 0000.0001) %MON g__extforcing_g_empmr_sd     =   0.0000000000000E+00
(PID.TID 0000.0001) %MON g__extforcing_g_empmr_del2   =   0.0000000000000E+00
(PID.TID 0000.0001) %MON g__extforcing_g_fu_max       =   0.0000000000000E+00
(PID.TID 0000.0001) %MON g__extforcing_g_fu_min       =   0.0000000000000E+00
(PID.TID 0000.0001) %MON g__extforcing_g_fu_mean      =   0.0000000000000E+00
(PID.TID 0000.0001) %MON g__extforcing_g_fu_sd        =   0.0000000000000E+00
(PID.TID 0000.0001) %MON g__extforcing_g_fu_del2      =   0.0000000000000E+00
(PID.TID 0000.0001) %MON g__extforcing_g_fv_max       =   0.0000000000000E+00
(PID.TID 0000.0001) %MON g__extforcing_g_fv_min       =   0.0000000000000E+00
(PID.TID 0000.0001) %MON g__extforcing_g_fv_mean      =   0.0000000000000E+00
(PID.TID 0000.0001) %MON g__extforcing_g_fv_sd        =   0.0000000000000E+00
(PID.TID 0000.0001) %MON g__extforcing_g_fv_del2      =   0.0000000000000E+00
(PID.TID 0000.0001) %MON g__g_vcfl_g_uvel_max         =   1.3304585532179E-04
(PID.TID 0000.0001) %MON g__g_vcfl_g_vvel_max         =   3.6183575667609E-05
(PID.TID 0000.0001) %MON g__g_vcfl_g_wvel_max         =   2.0066483763047E-04
(PID.TID 0000.0001) %MON g__g_vcfl_g_W_hf_max         =   4.8159561031313E-04
(PID.TID 0000.0001) // =======================================================
(PID.TID 0000.0001) // End MONITOR dynamic field statistics
(PID.TID 0000.0001) // =======================================================
 cg2d: Sum(rhs),rhsMax =   3.03849666635541E-12  1.56666612673568E-02
 cg2d: Sum(rhs),rhsMax =  -1.55738963392160E-12  1.02967139423326E+01
(PID.TID 0000.0001) // =======================================================
(PID.TID 0000.0001) // Begin MONITOR dynamic field statistics
(PID.TID 0000.0001) // =======================================================
(PID.TID 0000.0001) %MON g__time_tsnumber             =                    30
(PID.TID 0000.0001) %MON g__time_secondsf             =   1.2960000000000E+06
(PID.TID 0000.0001) %MON g__dynstat_g_eta_max         =   3.6387032852006E-03
(PID.TID 0000.0001) %MON g__dynstat_g_eta_min         =  -6.9733271303861E-05
(PID.TID 0000.0001) %MON g__dynstat_g_eta_mean        =  -2.9975912685769E-18
(PID.TID 0000.0001) %MON g__dynstat_g_eta_sd          =   4.6023377533299E-05
(PID.TID 0000.0001) %MON g__dynstat_g_eta_del2        =   2.4426565278292E-06
(PID.TID 0000.0001) %MON g__dynstat_g_uvel_max        =   1.8687376988289E-04
(PID.TID 0000.0001) %MON g__dynstat_g_uvel_min        =  -4.0662669913975E-04
(PID.TID 0000.0001) %MON g__dynstat_g_uvel_mean       =   3.5905199130581E-08
(PID.TID 0000.0001) %MON g__dynstat_g_uvel_sd         =   9.6535068795157E-07
(PID.TID 0000.0001) %MON g__dynstat_g_uvel_del2       =   8.5560782520332E-08
(PID.TID 0000.0001) %MON g__dynstat_g_vvel_max        =   3.4045979877894E-04
(PID.TID 0000.0001) %MON g__dynstat_g_vvel_min        =  -3.7606610138222E-04
(PID.TID 0000.0001) %MON g__dynstat_g_vvel_mean       =  -5.3196625373780E-09
(PID.TID 0000.0001) %MON g__dynstat_g_vvel_sd         =   9.5992698684242E-07
(PID.TID 0000.0001) %MON g__dynstat_g_vvel_del2       =   6.5869106602258E-08
(PID.TID 0000.0001) %MON g__dynstat_g_wvel_max        =   1.4785409314299E-07
(PID.TID 0000.0001) %MON g__dynstat_g_wvel_min        =  -2.9696402779258E-07
(PID.TID 0000.0001) %MON g__dynstat_g_wvel_mean       =   5.5868954950796E-27
(PID.TID 0000.0001) %MON g__dynstat_g_wvel_sd         =   1.1357920198366E-09
(PID.TID 0000.0001) %MON g__dynstat_g_wvel_del2       =   1.4996073312501E-10
(PID.TID 0000.0001) %MON g__dynstat_g_theta_max       =   8.2032083919753E-01
(PID.TID 0000.0001) %MON g__dynstat_g_theta_min       =  -1.6796404681220E-03
(PID.TID 0000.0001) %MON g__dynstat_g_theta_mean      =   2.6378641958063E-06
(PID.TID 0000.0001) %MON g__dynstat_g_theta_sd        =   1.2077677810118E-03
(PID.TID 0000.0001) %MON g__dynstat_g_theta_del2      =   4.6602080744216E-05
(PID.TID 0000.0001) %MON g__dynstat_g_salt_max        =   4.4748771425463E-03
(PID.TID 0000.0001) %MON g__dynstat_g_salt_min        =  -7.5006436494509E-03
(PID.TID 0000.0001) %MON g__dynstat_g_salt_mean       =   2.7410217788817E-09
(PID.TID 0000.0001) %MON g__dynstat_g_salt_sd         =   1.4155748968987E-05
(PID.TID 0000.0001) %MON g__dynstat_g_salt_del2       =   1.0070666308748E-06
(PID.TID 0000.0001) %MON g__dynstat_g_sst_max         =   8.2032083919753E-01
(PID.TID 0000.0001) %MON g__dynstat_g_sst_min         =  -4.4657300340090E-05
(PID.TID 0000.0001) %MON g__dynstat_g_sst_mean        =   1.5330500087994E-04
(PID.TID 0000.0001) %MON g__dynstat_g_sst_sd          =   1.0370176299799E-02
(PID.TID 0000.0001) %MON g__dynstat_g_sst_del2        =   5.0171228893150E-04
(PID.TID 0000.0001) %MON g__dynstat_g_sss_max         =   4.4748771425463E-03
(PID.TID 0000.0001) %MON g__dynstat_g_sss_min         =  -7.5006436494509E-03
(PID.TID 0000.0001) %MON g__dynstat_g_sss_mean        =   3.8281898425784E-08
(PID.TID 0000.0001) %MON g__dynstat_g_sss_sd          =   1.1562751200261E-04
(PID.TID 0000.0001) %MON g__dynstat_g_sss_del2        =   9.2829261078686E-06
(PID.TID 0000.0001) %MON g__extforcing_g_qnet_max     =   0.0000000000000E+00
(PID.TID 0000.0001) %MON g__extforcing_g_qnet_min     =   0.0000000000000E+00
(PID.TID 0000.0001) %MON g__extforcing_g_qnet_mean    =   0.0000000000000E+00
(PID.TID 0000.0001) %MON g__extforcing_g_qnet_sd      =   0.0000000000000E+00
(PID.TID 0000.0001) %MON g__extforcing_g_qnet_del2    =   0.0000000000000E+00
(PID.TID 0000.0001) %MON g__extforcing_g_empmr_max    =   0.0000000000000E+00
(PID.TID 0000.0001) %MON g__extforcing_g_empmr_min    =   0.0000000000000E+00
(PID.TID 0000.0001) %MON g__extforcing_g_empmr_mean   =   0.0000000000000E+00
(PID.TID 0000.0001) %MON g__extforcing_g_empmr_sd     =   0.0000000000000E+00
(PID.TID 0000.0001) %MON g__extforcing_g_empmr_del2   =   0.0000000000000E+00
(PID.TID 0000.0001) %MON g__extforcing_g_fu_max       =   0.0000000000000E+00
(PID.TID 0000.0001) %MON g__extforcing_g_fu_min       =   0.0000000000000E+00
(PID.TID 0000.0001) %MON g__extforcing_g_fu_mean      =   0.0000000000000E+00
(PID.TID 0000.0001) %MON g__extforcing_g_fu_sd        =   0.0000000000000E+00
(PID.TID 0000.0001) %MON g__extforcing_g_fu_del2      =   0.0000000000000E+00
(PID.TID 0000.0001) %MON g__extforcing_g_fv_max       =   0.0000000000000E+00
(PID.TID 0000.0001) %MON g__extforcing_g_fv_min       =   0.0000000000000E+00
(PID.TID 0000.0001) %MON g__extforcing_g_fv_mean      =   0.0000000000000E+00
(PID.TID 0000.0001) %MON g__extforcing_g_fv_sd        =   0.0000000000000E+00
(PID.TID 0000.0001) %MON g__extforcing_g_fv_del2      =   0.0000000000000E+00
(PID.TID 0000.0001) %MON g__g_vcfl_g_uvel_max         =   1.4330613116733E-04
(PID.TID 0000.0001) %MON g__g_vcfl_g_vvel_max         =   3.6531806061714E-05
(PID.TID 0000.0001) %MON g__g_vcfl_g_wvel_max         =   2.0342747453315E-04
(PID.TID 0000.0001) %MON g__g_vcfl_g_W_hf_max         =   4.8822593887957E-04
(PID.TID 0000.0001) // =======================================================
(PID.TID 0000.0001) // End MONITOR dynamic field statistics
(PID.TID 0000.0001) // =======================================================
(PID.TID 0000.0001)  MDSREADFIELD: opening global file: trenberth_taux.bin
(PID.TID 0000.0001)  MDSREADFIELD: opening global file: trenberth_taux.bin
(PID.TID 0000.0001)  MDSREADFIELD: opening global file: trenberth_tauy.bin
(PID.TID 0000.0001)  MDSREADFIELD: opening global file: trenberth_tauy.bin
(PID.TID 0000.0001)  MDSREADFIELD: opening global file: ncep_qnet.bin
(PID.TID 0000.0001)  MDSREADFIELD: opening global file: ncep_qnet.bin
(PID.TID 0000.0001)  MDSREADFIELD: opening global file: lev_sst.bin
(PID.TID 0000.0001)  MDSREADFIELD: opening global file: lev_sst.bin
(PID.TID 0000.0001)  MDSREADFIELD: opening global file: lev_sss.bin
(PID.TID 0000.0001)  MDSREADFIELD: opening global file: lev_sss.bin
 myIter=  30
(PID.TID 0000.0001) // Model state written, timestep        30
(PID.TID 0000.0001) 
 cg2d: Sum(rhs),rhsMax =   2.99589264052480E-12  1.57505991349021E-02
 cg2d: Sum(rhs),rhsMax =  -1.33625749354493E-12  9.29740447830930E+00
(PID.TID 0000.0001) // =======================================================
(PID.TID 0000.0001) // Begin MONITOR dynamic field statistics
(PID.TID 0000.0001) // =======================================================
(PID.TID 0000.0001) %MON g__time_tsnumber             =                    31
(PID.TID 0000.0001) %MON g__time_secondsf             =   1.3392000000000E+06
(PID.TID 0000.0001) %MON g__dynstat_g_eta_max         =   3.6465790957613E-03
(PID.TID 0000.0001) %MON g__dynstat_g_eta_min         =  -5.4088252769722E-05
(PID.TID 0000.0001) %MON g__dynstat_g_eta_mean        =  -3.0464653128361E-18
(PID.TID 0000.0001) %MON g__dynstat_g_eta_sd          =   4.6082155911291E-05
(PID.TID 0000.0001) %MON g__dynstat_g_eta_del2        =   2.4621334720984E-06
(PID.TID 0000.0001) %MON g__dynstat_g_uvel_max        =   2.0692933209862E-04
(PID.TID 0000.0001) %MON g__dynstat_g_uvel_min        =  -4.2097761713330E-04
(PID.TID 0000.0001) %MON g__dynstat_g_uvel_mean       =   3.4116465624523E-08
(PID.TID 0000.0001) %MON g__dynstat_g_uvel_sd         =   9.7356156228713E-07
(PID.TID 0000.0001) %MON g__dynstat_g_uvel_del2       =   8.6764107238825E-08
(PID.TID 0000.0001) %MON g__dynstat_g_vvel_max        =   3.1987846915188E-04
(PID.TID 0000.0001) %MON g__dynstat_g_vvel_min        =  -3.7975717839906E-04
(PID.TID 0000.0001) %MON g__dynstat_g_vvel_mean       =  -5.8265675165914E-09
(PID.TID 0000.0001) %MON g__dynstat_g_vvel_sd         =   9.5159664608800E-07
(PID.TID 0000.0001) %MON g__dynstat_g_vvel_del2       =   6.7057305448279E-08
(PID.TID 0000.0001) %MON g__dynstat_g_wvel_max        =   1.5171764232692E-07
(PID.TID 0000.0001) %MON g__dynstat_g_wvel_min        =  -2.9873821149296E-07
(PID.TID 0000.0001) %MON g__dynstat_g_wvel_mean       =   3.5520270260223E-27
(PID.TID 0000.0001) %MON g__dynstat_g_wvel_sd         =   1.0950076437858E-09
(PID.TID 0000.0001) %MON g__dynstat_g_wvel_del2       =   1.4906411123110E-10
(PID.TID 0000.0001) %MON g__dynstat_g_theta_max       =   8.1827812188332E-01
(PID.TID 0000.0001) %MON g__dynstat_g_theta_min       =  -1.6689690645294E-03
(PID.TID 0000.0001) %MON g__dynstat_g_theta_mean      =   2.6671020754564E-06
(PID.TID 0000.0001) %MON g__dynstat_g_theta_sd        =   1.2071623675188E-03
(PID.TID 0000.0001) %MON g__dynstat_g_theta_del2      =   4.6694668228933E-05
(PID.TID 0000.0001) %MON g__dynstat_g_salt_max        =   4.6136252998373E-03
(PID.TID 0000.0001) %MON g__dynstat_g_salt_min        =  -7.8322575950432E-03
(PID.TID 0000.0001) %MON g__dynstat_g_salt_mean       =   2.2124486998907E-09
(PID.TID 0000.0001) %MON g__dynstat_g_salt_sd         =   1.4617760784760E-05
(PID.TID 0000.0001) %MON g__dynstat_g_salt_del2       =   1.0293432230713E-06
(PID.TID 0000.0001) %MON g__dynstat_g_sst_max         =   8.1827812188332E-01
(PID.TID 0000.0001) %MON g__dynstat_g_sst_min         =  -4.1697931161768E-05
(PID.TID 0000.0001) %MON g__dynstat_g_sst_mean        =   1.5371584622074E-04
(PID.TID 0000.0001) %MON g__dynstat_g_sst_sd          =   1.0348177345661E-02
(PID.TID 0000.0001) %MON g__dynstat_g_sst_del2        =   4.9949192577302E-04
(PID.TID 0000.0001) %MON g__dynstat_g_sss_max         =   4.6136252998373E-03
(PID.TID 0000.0001) %MON g__dynstat_g_sss_min         =  -7.8322575950432E-03
(PID.TID 0000.0001) %MON g__dynstat_g_sss_mean        =   3.1494156346430E-08
(PID.TID 0000.0001) %MON g__dynstat_g_sss_sd          =   1.2038505254369E-04
(PID.TID 0000.0001) %MON g__dynstat_g_sss_del2        =   9.6392438334881E-06
(PID.TID 0000.0001) %MON g__extforcing_g_qnet_max     =   0.0000000000000E+00
(PID.TID 0000.0001) %MON g__extforcing_g_qnet_min     =   0.0000000000000E+00
(PID.TID 0000.0001) %MON g__extforcing_g_qnet_mean    =   0.0000000000000E+00
(PID.TID 0000.0001) %MON g__extforcing_g_qnet_sd      =   0.0000000000000E+00
(PID.TID 0000.0001) %MON g__extforcing_g_qnet_del2    =   0.0000000000000E+00
(PID.TID 0000.0001) %MON g__extforcing_g_empmr_max    =   0.0000000000000E+00
(PID.TID 0000.0001) %MON g__extforcing_g_empmr_min    =   0.0000000000000E+00
(PID.TID 0000.0001) %MON g__extforcing_g_empmr_mean   =   0.0000000000000E+00
(PID.TID 0000.0001) %MON g__extforcing_g_empmr_sd     =   0.0000000000000E+00
(PID.TID 0000.0001) %MON g__extforcing_g_empmr_del2   =   0.0000000000000E+00
(PID.TID 0000.0001) %MON g__extforcing_g_fu_max       =   0.0000000000000E+00
(PID.TID 0000.0001) %MON g__extforcing_g_fu_min       =   0.0000000000000E+00
(PID.TID 0000.0001) %MON g__extforcing_g_fu_mean      =   0.0000000000000E+00
(PID.TID 0000.0001) %MON g__extforcing_g_fu_sd        =   0.0000000000000E+00
(PID.TID 0000.0001) %MON g__extforcing_g_fu_del2      =   0.0000000000000E+00
(PID.TID 0000.0001) %MON g__extforcing_g_fv_max       =   0.0000000000000E+00
(PID.TID 0000.0001) %MON g__extforcing_g_fv_min       =   0.0000000000000E+00
(PID.TID 0000.0001) %MON g__extforcing_g_fv_mean      =   0.0000000000000E+00
(PID.TID 0000.0001) %MON g__extforcing_g_fv_sd        =   0.0000000000000E+00
(PID.TID 0000.0001) %MON g__extforcing_g_fv_del2      =   0.0000000000000E+00
(PID.TID 0000.0001) %MON g__g_vcfl_g_uvel_max         =   1.4836377873623E-04
(PID.TID 0000.0001) %MON g__g_vcfl_g_vvel_max         =   3.6890364595020E-05
(PID.TID 0000.0001) %MON g__g_vcfl_g_wvel_max         =   1.9603018795862E-04
(PID.TID 0000.0001) %MON g__g_vcfl_g_W_hf_max         =   4.7047245110070E-04
(PID.TID 0000.0001) // =======================================================
(PID.TID 0000.0001) // End MONITOR dynamic field statistics
(PID.TID 0000.0001) // =======================================================
 cg2d: Sum(rhs),rhsMax =   3.00520701596585E-12  1.59475061721662E-02
 cg2d: Sum(rhs),rhsMax =  -1.56610835411186E-12  9.11143504680528E+00
(PID.TID 0000.0001) // =======================================================
(PID.TID 0000.0001) // Begin MONITOR dynamic field statistics
(PID.TID 0000.0001) // =======================================================
(PID.TID 0000.0001) %MON g__time_tsnumber             =                    32
(PID.TID 0000.0001) %MON g__time_secondsf             =   1.3824000000000E+06
(PID.TID 0000.0001) %MON g__dynstat_g_eta_max         =   3.6847326395181E-03
(PID.TID 0000.0001) %MON g__dynstat_g_eta_min         =  -3.8055329688936E-05
(PID.TID 0000.0001) %MON g__dynstat_g_eta_mean        =  -3.2548217490018E-18
(PID.TID 0000.0001) %MON g__dynstat_g_eta_sd          =   4.6534442980572E-05
(PID.TID 0000.0001) %MON g__dynstat_g_eta_del2        =   2.4990544550975E-06
(PID.TID 0000.0001) %MON g__dynstat_g_uvel_max        =   2.1048108346384E-04
(PID.TID 0000.0001) %MON g__dynstat_g_uvel_min        =  -4.2044857908924E-04
(PID.TID 0000.0001) %MON g__dynstat_g_uvel_mean       =   3.2312634032696E-08
(PID.TID 0000.0001) %MON g__dynstat_g_uvel_sd         =   9.5313186016728E-07
(PID.TID 0000.0001) %MON g__dynstat_g_uvel_del2       =   8.5936168595017E-08
(PID.TID 0000.0001) %MON g__dynstat_g_vvel_max        =   2.9989227486504E-04
(PID.TID 0000.0001) %MON g__dynstat_g_vvel_min        =  -3.8318214313417E-04
(PID.TID 0000.0001) %MON g__dynstat_g_vvel_mean       =  -6.9848623527376E-09
(PID.TID 0000.0001) %MON g__dynstat_g_vvel_sd         =   9.4327167935442E-07
(PID.TID 0000.0001) %MON g__dynstat_g_vvel_del2       =   6.8135712745830E-08
(PID.TID 0000.0001) %MON g__dynstat_g_wvel_max        =   1.5255063145367E-07
(PID.TID 0000.0001) %MON g__dynstat_g_wvel_min        =  -2.8525321584629E-07
(PID.TID 0000.0001) %MON g__dynstat_g_wvel_mean       =  -3.2027472491564E-28
(PID.TID 0000.0001) %MON g__dynstat_g_wvel_sd         =   1.0301701971960E-09
(PID.TID 0000.0001) %MON g__dynstat_g_wvel_del2       =   1.4565955349189E-10
(PID.TID 0000.0001) %MON g__dynstat_g_theta_max       =   8.1819659516459E-01
(PID.TID 0000.0001) %MON g__dynstat_g_theta_min       =  -1.6502234578294E-03
(PID.TID 0000.0001) %MON g__dynstat_g_theta_mean      =   2.7078161005049E-06
(PID.TID 0000.0001) %MON g__dynstat_g_theta_sd        =   1.2099286992461E-03
(PID.TID 0000.0001) %MON g__dynstat_g_theta_del2      =   4.6951191307365E-05
(PID.TID 0000.0001) %MON g__dynstat_g_salt_max        =   4.7622856360334E-03
(PID.TID 0000.0001) %MON g__dynstat_g_salt_min        =  -8.1900020528568E-03
(PID.TID 0000.0001) %MON g__dynstat_g_salt_mean       =   1.6088901610463E-09
(PID.TID 0000.0001) %MON g__dynstat_g_salt_sd         =   1.5119640998756E-05
(PID.TID 0000.0001) %MON g__dynstat_g_salt_del2       =   1.0523428701672E-06
(PID.TID 0000.0001) %MON g__dynstat_g_sst_max         =   8.1819659516459E-01
(PID.TID 0000.0001) %MON g__dynstat_g_sst_min         =  -3.5802208973410E-05
(PID.TID 0000.0001) %MON g__dynstat_g_sst_mean        =   1.5454631008034E-04
(PID.TID 0000.0001) %MON g__dynstat_g_sst_sd          =   1.0351091365201E-02
(PID.TID 0000.0001) %MON g__dynstat_g_sst_del2        =   4.9843389617544E-04
(PID.TID 0000.0001) %MON g__dynstat_g_sss_max         =   4.7622856360334E-03
(PID.TID 0000.0001) %MON g__dynstat_g_sss_min         =  -8.1900020528568E-03
(PID.TID 0000.0001) %MON g__dynstat_g_sss_mean        =   2.4585612966487E-08
(PID.TID 0000.0001) %MON g__dynstat_g_sss_sd          =   1.2554068863526E-04
(PID.TID 0000.0001) %MON g__dynstat_g_sss_del2        =   1.0022531992883E-05
(PID.TID 0000.0001) %MON g__extforcing_g_qnet_max     =   0.0000000000000E+00
(PID.TID 0000.0001) %MON g__extforcing_g_qnet_min     =   0.0000000000000E+00
(PID.TID 0000.0001) %MON g__extforcing_g_qnet_mean    =   0.0000000000000E+00
(PID.TID 0000.0001) %MON g__extforcing_g_qnet_sd      =   0.0000000000000E+00
(PID.TID 0000.0001) %MON g__extforcing_g_qnet_del2    =   0.0000000000000E+00
(PID.TID 0000.0001) %MON g__extforcing_g_empmr_max    =   0.0000000000000E+00
(PID.TID 0000.0001) %MON g__extforcing_g_empmr_min    =   0.0000000000000E+00
(PID.TID 0000.0001) %MON g__extforcing_g_empmr_mean   =   0.0000000000000E+00
(PID.TID 0000.0001) %MON g__extforcing_g_empmr_sd     =   0.0000000000000E+00
(PID.TID 0000.0001) %MON g__extforcing_g_empmr_del2   =   0.0000000000000E+00
(PID.TID 0000.0001) %MON g__extforcing_g_fu_max       =   0.0000000000000E+00
(PID.TID 0000.0001) %MON g__extforcing_g_fu_min       =   0.0000000000000E+00
(PID.TID 0000.0001) %MON g__extforcing_g_fu_mean      =   0.0000000000000E+00
(PID.TID 0000.0001) %MON g__extforcing_g_fu_sd        =   0.0000000000000E+00
(PID.TID 0000.0001) %MON g__extforcing_g_fu_del2      =   0.0000000000000E+00
(PID.TID 0000.0001) %MON g__extforcing_g_fv_max       =   0.0000000000000E+00
(PID.TID 0000.0001) %MON g__extforcing_g_fv_min       =   0.0000000000000E+00
(PID.TID 0000.0001) %MON g__extforcing_g_fv_mean      =   0.0000000000000E+00
(PID.TID 0000.0001) %MON g__extforcing_g_fv_sd        =   0.0000000000000E+00
(PID.TID 0000.0001) %MON g__extforcing_g_fv_del2      =   0.0000000000000E+00
(PID.TID 0000.0001) %MON g__g_vcfl_g_uvel_max         =   1.4817733157107E-04
(PID.TID 0000.0001) %MON g__g_vcfl_g_vvel_max         =   3.7223072454121E-05
(PID.TID 0000.0001) %MON g__g_vcfl_g_wvel_max         =   1.7965210938010E-04
(PID.TID 0000.0001) %MON g__g_vcfl_g_W_hf_max         =   4.3116506251223E-04
(PID.TID 0000.0001) // =======================================================
(PID.TID 0000.0001) // End MONITOR dynamic field statistics
(PID.TID 0000.0001) // =======================================================
 cg2d: Sum(rhs),rhsMax =   3.15524470886326E-12  1.62391664879297E-02
 cg2d: Sum(rhs),rhsMax =  -1.63791202822949E-12  9.23484312292801E+00
(PID.TID 0000.0001) // =======================================================
(PID.TID 0000.0001) // Begin MONITOR dynamic field statistics
(PID.TID 0000.0001) // =======================================================
(PID.TID 0000.0001) %MON g__time_tsnumber             =                    33
(PID.TID 0000.0001) %MON g__time_secondsf             =   1.4256000000000E+06
(PID.TID 0000.0001) %MON g__dynstat_g_eta_max         =   3.7500010170476E-03
(PID.TID 0000.0001) %MON g__dynstat_g_eta_min         =  -2.7284812127335E-05
(PID.TID 0000.0001) %MON g__dynstat_g_eta_mean        =  -3.5683543386000E-18
(PID.TID 0000.0001) %MON g__dynstat_g_eta_sd          =   4.7339327152075E-05
(PID.TID 0000.0001) %MON g__dynstat_g_eta_del2        =   2.5479444800305E-06
(PID.TID 0000.0001) %MON g__dynstat_g_uvel_max        =   1.9887805643666E-04
(PID.TID 0000.0001) %MON g__dynstat_g_uvel_min        =  -4.0554190235917E-04
(PID.TID 0000.0001) %MON g__dynstat_g_uvel_mean       =   3.0631757394490E-08
(PID.TID 0000.0001) %MON g__dynstat_g_uvel_sd         =   9.0571729150276E-07
(PID.TID 0000.0001) %MON g__dynstat_g_uvel_del2       =   8.3373477873763E-08
(PID.TID 0000.0001) %MON g__dynstat_g_vvel_max        =   2.8162923332656E-04
(PID.TID 0000.0001) %MON g__dynstat_g_vvel_min        =  -3.8588226882737E-04
(PID.TID 0000.0001) %MON g__dynstat_g_vvel_mean       =  -8.7301577045740E-09
(PID.TID 0000.0001) %MON g__dynstat_g_vvel_sd         =   9.3560636448833E-07
(PID.TID 0000.0001) %MON g__dynstat_g_vvel_del2       =   6.8880725891088E-08
(PID.TID 0000.0001) %MON g__dynstat_g_wvel_max        =   1.5038587363024E-07
(PID.TID 0000.0001) %MON g__dynstat_g_wvel_min        =  -2.5856339074876E-07
(PID.TID 0000.0001) %MON g__dynstat_g_wvel_mean       =  -3.4596752113078E-28
(PID.TID 0000.0001) %MON g__dynstat_g_wvel_sd         =   9.5267965266825E-10
(PID.TID 0000.0001) %MON g__dynstat_g_wvel_del2       =   1.4029404181056E-10
(PID.TID 0000.0001) %MON g__dynstat_g_theta_max       =   8.1940523172242E-01
(PID.TID 0000.0001) %MON g__dynstat_g_theta_min       =  -1.6239715681090E-03
(PID.TID 0000.0001) %MON g__dynstat_g_theta_mean      =   2.7567408115001E-06
(PID.TID 0000.0001) %MON g__dynstat_g_theta_sd        =   1.2150003189085E-03
(PID.TID 0000.0001) %MON g__dynstat_g_theta_del2      =   4.7316444745681E-05
(PID.TID 0000.0001) %MON g__dynstat_g_salt_max        =   4.9193623531333E-03
(PID.TID 0000.0001) %MON g__dynstat_g_salt_min        =  -8.5646664387956E-03
(PID.TID 0000.0001) %MON g__dynstat_g_salt_mean       =   9.6016315278734E-10
(PID.TID 0000.0001) %MON g__dynstat_g_salt_sd         =   1.5653234695653E-05
(PID.TID 0000.0001) %MON g__dynstat_g_salt_del2       =   1.0756726508825E-06
(PID.TID 0000.0001) %MON g__dynstat_g_sst_max         =   8.1940523172242E-01
(PID.TID 0000.0001) %MON g__dynstat_g_sst_min         =  -3.1614874726934E-05
(PID.TID 0000.0001) %MON g__dynstat_g_sst_mean        =   1.5566283332127E-04
(PID.TID 0000.0001) %MON g__dynstat_g_sst_sd          =   1.0370437622071E-02
(PID.TID 0000.0001) %MON g__dynstat_g_sst_del2        =   4.9813646244612E-04
(PID.TID 0000.0001) %MON g__dynstat_g_sss_max         =   4.9193623531333E-03
(PID.TID 0000.0001) %MON g__dynstat_g_sss_min         =  -8.5646664387956E-03
(PID.TID 0000.0001) %MON g__dynstat_g_sss_mean        =   1.7989209324307E-08
(PID.TID 0000.0001) %MON g__dynstat_g_sss_sd          =   1.3097167598713E-04
(PID.TID 0000.0001) %MON g__dynstat_g_sss_del2        =   1.0424260426722E-05
(PID.TID 0000.0001) %MON g__extforcing_g_qnet_max     =   0.0000000000000E+00
(PID.TID 0000.0001) %MON g__extforcing_g_qnet_min     =   0.0000000000000E+00
(PID.TID 0000.0001) %MON g__extforcing_g_qnet_mean    =   0.0000000000000E+00
(PID.TID 0000.0001) %MON g__extforcing_g_qnet_sd      =   0.0000000000000E+00
(PID.TID 0000.0001) %MON g__extforcing_g_qnet_del2    =   0.0000000000000E+00
(PID.TID 0000.0001) %MON g__extforcing_g_empmr_max    =   0.0000000000000E+00
(PID.TID 0000.0001) %MON g__extforcing_g_empmr_min    =   0.0000000000000E+00
(PID.TID 0000.0001) %MON g__extforcing_g_empmr_mean   =   0.0000000000000E+00
(PID.TID 0000.0001) %MON g__extforcing_g_empmr_sd     =   0.0000000000000E+00
(PID.TID 0000.0001) %MON g__extforcing_g_empmr_del2   =   0.0000000000000E+00
(PID.TID 0000.0001) %MON g__extforcing_g_fu_max       =   0.0000000000000E+00
(PID.TID 0000.0001) %MON g__extforcing_g_fu_min       =   0.0000000000000E+00
(PID.TID 0000.0001) %MON g__extforcing_g_fu_mean      =   0.0000000000000E+00
(PID.TID 0000.0001) %MON g__extforcing_g_fu_sd        =   0.0000000000000E+00
(PID.TID 0000.0001) %MON g__extforcing_g_fu_del2      =   0.0000000000000E+00
(PID.TID 0000.0001) %MON g__extforcing_g_fv_max       =   0.0000000000000E+00
(PID.TID 0000.0001) %MON g__extforcing_g_fv_min       =   0.0000000000000E+00
(PID.TID 0000.0001) %MON g__extforcing_g_fv_mean      =   0.0000000000000E+00
(PID.TID 0000.0001) %MON g__extforcing_g_fv_sd        =   0.0000000000000E+00
(PID.TID 0000.0001) %MON g__extforcing_g_fv_del2      =   0.0000000000000E+00
(PID.TID 0000.0001) %MON g__g_vcfl_g_uvel_max         =   1.4292381974986E-04
(PID.TID 0000.0001) %MON g__g_vcfl_g_vvel_max         =   3.7485368012811E-05
(PID.TID 0000.0001) %MON g__g_vcfl_g_wvel_max         =   1.5597795976450E-04
(PID.TID 0000.0001) %MON g__g_vcfl_g_W_hf_max         =   3.7434710343479E-04
(PID.TID 0000.0001) // =======================================================
(PID.TID 0000.0001) // End MONITOR dynamic field statistics
(PID.TID 0000.0001) // =======================================================
 cg2d: Sum(rhs),rhsMax =   3.38269852155192E-12  1.66042702926944E-02
 cg2d: Sum(rhs),rhsMax =  -1.47438311559611E-12  9.27184087685190E+00
(PID.TID 0000.0001) // =======================================================
(PID.TID 0000.0001) // Begin MONITOR dynamic field statistics
(PID.TID 0000.0001) // =======================================================
(PID.TID 0000.0001) %MON g__time_tsnumber             =                    34
(PID.TID 0000.0001) %MON g__time_secondsf             =   1.4688000000000E+06
(PID.TID 0000.0001) %MON g__dynstat_g_eta_max         =   3.8377845628679E-03
(PID.TID 0000.0001) %MON g__dynstat_g_eta_min         =  -2.6397065659019E-05
(PID.TID 0000.0001) %MON g__dynstat_g_eta_mean        =  -3.5979941475970E-18
(PID.TID 0000.0001) %MON g__dynstat_g_eta_sd          =   4.8438194820515E-05
(PID.TID 0000.0001) %MON g__dynstat_g_eta_del2        =   2.6018904170313E-06
(PID.TID 0000.0001) %MON g__dynstat_g_uvel_max        =   1.7405544325694E-04
(PID.TID 0000.0001) %MON g__dynstat_g_uvel_min        =  -3.7736447733164E-04
(PID.TID 0000.0001) %MON g__dynstat_g_uvel_mean       =   2.9209796887299E-08
(PID.TID 0000.0001) %MON g__dynstat_g_uvel_sd         =   8.3489678956254E-07
(PID.TID 0000.0001) %MON g__dynstat_g_uvel_del2       =   7.9725803116903E-08
(PID.TID 0000.0001) %MON g__dynstat_g_vvel_max        =   2.6612392929641E-04
(PID.TID 0000.0001) %MON g__dynstat_g_vvel_min        =  -3.8738999940480E-04
(PID.TID 0000.0001) %MON g__dynstat_g_vvel_mean       =  -1.0948796858643E-08
(PID.TID 0000.0001) %MON g__dynstat_g_vvel_sd         =   9.2893697656435E-07
(PID.TID 0000.0001) %MON g__dynstat_g_vvel_del2       =   6.9256656271371E-08
(PID.TID 0000.0001) %MON g__dynstat_g_wvel_max        =   1.4523288083420E-07
(PID.TID 0000.0001) %MON g__dynstat_g_wvel_min        =  -2.2099740907288E-07
(PID.TID 0000.0001) %MON g__dynstat_g_wvel_mean       =   4.9551263768661E-27
(PID.TID 0000.0001) %MON g__dynstat_g_wvel_sd         =   8.7206607747543E-10
(PID.TID 0000.0001) %MON g__dynstat_g_wvel_del2       =   1.3493063956583E-10
(PID.TID 0000.0001) %MON g__dynstat_g_theta_max       =   8.2129822812670E-01
(PID.TID 0000.0001) %MON g__dynstat_g_theta_min       =  -1.5910529207178E-03
(PID.TID 0000.0001) %MON g__dynstat_g_theta_mean      =   2.8108007182438E-06
(PID.TID 0000.0001) %MON g__dynstat_g_theta_sd        =   1.2213942276518E-03
(PID.TID 0000.0001) %MON g__dynstat_g_theta_del2      =   4.7740187368086E-05
(PID.TID 0000.0001) %MON g__dynstat_g_salt_max        =   5.0827427089986E-03
(PID.TID 0000.0001) %MON g__dynstat_g_salt_min        =  -8.9471516514547E-03
(PID.TID 0000.0001) %MON g__dynstat_g_salt_mean       =   3.0047740832890E-10
(PID.TID 0000.0001) %MON g__dynstat_g_salt_sd         =   1.6208698727052E-05
(PID.TID 0000.0001) %MON g__dynstat_g_salt_del2       =   1.0990471271870E-06
(PID.TID 0000.0001) %MON g__dynstat_g_sst_max         =   8.2129822812670E-01
(PID.TID 0000.0001) %MON g__dynstat_g_sst_min         =  -3.1329970955392E-05
(PID.TID 0000.0001) %MON g__dynstat_g_sst_mean        =   1.5694027884857E-04
(PID.TID 0000.0001) %MON g__dynstat_g_sst_sd          =   1.0398549259759E-02
(PID.TID 0000.0001) %MON g__dynstat_g_sst_del2        =   4.9823963133150E-04
(PID.TID 0000.0001) %MON g__dynstat_g_sss_max         =   5.0827427089986E-03
(PID.TID 0000.0001) %MON g__dynstat_g_sss_min         =  -8.9471516514547E-03
(PID.TID 0000.0001) %MON g__dynstat_g_sss_mean        =   1.1942963761303E-08
(PID.TID 0000.0001) %MON g__dynstat_g_sss_sd          =   1.3655178928673E-04
(PID.TID 0000.0001) %MON g__dynstat_g_sss_del2        =   1.0835530333350E-05
(PID.TID 0000.0001) %MON g__extforcing_g_qnet_max     =   0.0000000000000E+00
(PID.TID 0000.0001) %MON g__extforcing_g_qnet_min     =   0.0000000000000E+00
(PID.TID 0000.0001) %MON g__extforcing_g_qnet_mean    =   0.0000000000000E+00
(PID.TID 0000.0001) %MON g__extforcing_g_qnet_sd      =   0.0000000000000E+00
(PID.TID 0000.0001) %MON g__extforcing_g_qnet_del2    =   0.0000000000000E+00
(PID.TID 0000.0001) %MON g__extforcing_g_empmr_max    =   0.0000000000000E+00
(PID.TID 0000.0001) %MON g__extforcing_g_empmr_min    =   0.0000000000000E+00
(PID.TID 0000.0001) %MON g__extforcing_g_empmr_mean   =   0.0000000000000E+00
(PID.TID 0000.0001) %MON g__extforcing_g_empmr_sd     =   0.0000000000000E+00
(PID.TID 0000.0001) %MON g__extforcing_g_empmr_del2   =   0.0000000000000E+00
(PID.TID 0000.0001) %MON g__extforcing_g_fu_max       =   0.0000000000000E+00
(PID.TID 0000.0001) %MON g__extforcing_g_fu_min       =   0.0000000000000E+00
(PID.TID 0000.0001) %MON g__extforcing_g_fu_mean      =   0.0000000000000E+00
(PID.TID 0000.0001) %MON g__extforcing_g_fu_sd        =   0.0000000000000E+00
(PID.TID 0000.0001) %MON g__extforcing_g_fu_del2      =   0.0000000000000E+00
(PID.TID 0000.0001) %MON g__extforcing_g_fv_max       =   0.0000000000000E+00
(PID.TID 0000.0001) %MON g__extforcing_g_fv_min       =   0.0000000000000E+00
(PID.TID 0000.0001) %MON g__extforcing_g_fv_mean      =   0.0000000000000E+00
(PID.TID 0000.0001) %MON g__extforcing_g_fv_sd        =   0.0000000000000E+00
(PID.TID 0000.0001) %MON g__extforcing_g_fv_del2      =   0.0000000000000E+00
(PID.TID 0000.0001) %MON g__g_vcfl_g_uvel_max         =   1.3299334106881E-04
(PID.TID 0000.0001) %MON g__g_vcfl_g_vvel_max         =   3.7631831947862E-05
(PID.TID 0000.0001) %MON g__g_vcfl_g_wvel_max         =   1.2673754169891E-04
(PID.TID 0000.0001) %MON g__g_vcfl_g_W_hf_max         =   3.0417010007739E-04
(PID.TID 0000.0001) // =======================================================
(PID.TID 0000.0001) // End MONITOR dynamic field statistics
(PID.TID 0000.0001) // =======================================================
 cg2d: Sum(rhs),rhsMax =   3.32842970982698E-12  1.70191927006059E-02
 cg2d: Sum(rhs),rhsMax =  -1.16397169680482E-12  9.21972070819474E+00
(PID.TID 0000.0001) // =======================================================
(PID.TID 0000.0001) // Begin MONITOR dynamic field statistics
(PID.TID 0000.0001) // =======================================================
(PID.TID 0000.0001) %MON g__time_tsnumber             =                    35
(PID.TID 0000.0001) %MON g__time_secondsf             =   1.5120000000000E+06
(PID.TID 0000.0001) %MON g__dynstat_g_eta_max         =   3.9423009642008E-03
(PID.TID 0000.0001) %MON g__dynstat_g_eta_min         =  -2.5534435354357E-05
(PID.TID 0000.0001) %MON g__dynstat_g_eta_mean        =  -3.6516065092320E-18
(PID.TID 0000.0001) %MON g__dynstat_g_eta_sd          =   4.9759496321828E-05
(PID.TID 0000.0001) %MON g__dynstat_g_eta_del2        =   2.6581310173571E-06
(PID.TID 0000.0001) %MON g__dynstat_g_uvel_max        =   1.3832616945633E-04
(PID.TID 0000.0001) %MON g__dynstat_g_uvel_min        =  -3.3753400090883E-04
(PID.TID 0000.0001) %MON g__dynstat_g_uvel_mean       =   2.8167826584802E-08
(PID.TID 0000.0001) %MON g__dynstat_g_uvel_sd         =   7.4590472897816E-07
(PID.TID 0000.0001) %MON g__dynstat_g_uvel_del2       =   7.5702851330397E-08
(PID.TID 0000.0001) %MON g__dynstat_g_vvel_max        =   2.5425289051317E-04
(PID.TID 0000.0001) %MON g__dynstat_g_vvel_min        =  -3.8729644725750E-04
(PID.TID 0000.0001) %MON g__dynstat_g_vvel_mean       =  -1.3488324410875E-08
(PID.TID 0000.0001) %MON g__dynstat_g_vvel_sd         =   9.2312180135022E-07
(PID.TID 0000.0001) %MON g__dynstat_g_vvel_del2       =   6.9613212847136E-08
(PID.TID 0000.0001) %MON g__dynstat_g_wvel_max        =   1.3725310564295E-07
(PID.TID 0000.0001) %MON g__dynstat_g_wvel_min        =  -1.7520331263862E-07
(PID.TID 0000.0001) %MON g__dynstat_g_wvel_mean       =   1.3338707792935E-27
(PID.TID 0000.0001) %MON g__dynstat_g_wvel_sd         =   7.9550280359973E-10
(PID.TID 0000.0001) %MON g__dynstat_g_wvel_del2       =   1.2980110012781E-10
(PID.TID 0000.0001) %MON g__dynstat_g_theta_max       =   8.2335982646874E-01
(PID.TID 0000.0001) %MON g__dynstat_g_theta_min       =  -1.5526957331526E-03
(PID.TID 0000.0001) %MON g__dynstat_g_theta_mean      =   2.8672470912870E-06
(PID.TID 0000.0001) %MON g__dynstat_g_theta_sd        =   1.2282517086243E-03
(PID.TID 0000.0001) %MON g__dynstat_g_theta_del2      =   4.8167426641519E-05
(PID.TID 0000.0001) %MON g__dynstat_g_salt_max        =   5.2498667790560E-03
(PID.TID 0000.0001) %MON g__dynstat_g_salt_min        =  -9.3290253571207E-03
(PID.TID 0000.0001) %MON g__dynstat_g_salt_mean       =  -3.3463860861319E-10
(PID.TID 0000.0001) %MON g__dynstat_g_salt_sd         =   1.6775143335382E-05
(PID.TID 0000.0001) %MON g__dynstat_g_salt_del2       =   1.1214838762755E-06
(PID.TID 0000.0001) %MON g__dynstat_g_sst_max         =   8.2335982646874E-01
(PID.TID 0000.0001) %MON g__dynstat_g_sst_min         =  -3.1631511258722E-05
(PID.TID 0000.0001) %MON g__dynstat_g_sst_mean        =   1.5826903377119E-04
(PID.TID 0000.0001) %MON g__dynstat_g_sst_sd          =   1.0428888473543E-02
(PID.TID 0000.0001) %MON g__dynstat_g_sst_del2        =   4.9844149081022E-04
(PID.TID 0000.0001) %MON g__dynstat_g_sss_max         =   5.2498667790560E-03
(PID.TID 0000.0001) %MON g__dynstat_g_sss_min         =  -9.3290253571207E-03
(PID.TID 0000.0001) %MON g__dynstat_g_sss_mean        =   6.8128589378682E-09
(PID.TID 0000.0001) %MON g__dynstat_g_sss_sd          =   1.4215981569452E-04
(PID.TID 0000.0001) %MON g__dynstat_g_sss_del2        =   1.1248245498091E-05
(PID.TID 0000.0001) %MON g__extforcing_g_qnet_max     =   0.0000000000000E+00
(PID.TID 0000.0001) %MON g__extforcing_g_qnet_min     =   0.0000000000000E+00
(PID.TID 0000.0001) %MON g__extforcing_g_qnet_mean    =   0.0000000000000E+00
(PID.TID 0000.0001) %MON g__extforcing_g_qnet_sd      =   0.0000000000000E+00
(PID.TID 0000.0001) %MON g__extforcing_g_qnet_del2    =   0.0000000000000E+00
(PID.TID 0000.0001) %MON g__extforcing_g_empmr_max    =   0.0000000000000E+00
(PID.TID 0000.0001) %MON g__extforcing_g_empmr_min    =   0.0000000000000E+00
(PID.TID 0000.0001) %MON g__extforcing_g_empmr_mean   =   0.0000000000000E+00
(PID.TID 0000.0001) %MON g__extforcing_g_empmr_sd     =   0.0000000000000E+00
(PID.TID 0000.0001) %MON g__extforcing_g_empmr_del2   =   0.0000000000000E+00
(PID.TID 0000.0001) %MON g__extforcing_g_fu_max       =   0.0000000000000E+00
(PID.TID 0000.0001) %MON g__extforcing_g_fu_min       =   0.0000000000000E+00
(PID.TID 0000.0001) %MON g__extforcing_g_fu_mean      =   0.0000000000000E+00
(PID.TID 0000.0001) %MON g__extforcing_g_fu_sd        =   0.0000000000000E+00
(PID.TID 0000.0001) %MON g__extforcing_g_fu_del2      =   0.0000000000000E+00
(PID.TID 0000.0001) %MON g__extforcing_g_fv_max       =   0.0000000000000E+00
(PID.TID 0000.0001) %MON g__extforcing_g_fv_min       =   0.0000000000000E+00
(PID.TID 0000.0001) %MON g__extforcing_g_fv_mean      =   0.0000000000000E+00
(PID.TID 0000.0001) %MON g__extforcing_g_fv_sd        =   0.0000000000000E+00
(PID.TID 0000.0001) %MON g__extforcing_g_fv_del2      =   0.0000000000000E+00
(PID.TID 0000.0001) %MON g__g_vcfl_g_uvel_max         =   1.1895601521004E-04
(PID.TID 0000.0001) %MON g__g_vcfl_g_vvel_max         =   3.7622744106950E-05
(PID.TID 0000.0001) %MON g__g_vcfl_g_wvel_max         =   1.5050361791938E-04
(PID.TID 0000.0001) %MON g__g_vcfl_g_W_hf_max         =   2.2751091280734E-04
(PID.TID 0000.0001) // =======================================================
(PID.TID 0000.0001) // End MONITOR dynamic field statistics
(PID.TID 0000.0001) // =======================================================
 cg2d: Sum(rhs),rhsMax =   3.29295963461662E-12  1.74594900403690E-02
 cg2d: Sum(rhs),rhsMax =  -1.27080290734938E-12  9.07797514894403E+00
(PID.TID 0000.0001) // =======================================================
(PID.TID 0000.0001) // Begin MONITOR dynamic field statistics
(PID.TID 0000.0001) // =======================================================
(PID.TID 0000.0001) %MON g__time_tsnumber             =                    36
(PID.TID 0000.0001) %MON g__time_secondsf             =   1.5552000000000E+06
(PID.TID 0000.0001) %MON g__dynstat_g_eta_max         =   4.0570501969815E-03
(PID.TID 0000.0001) %MON g__dynstat_g_eta_min         =  -2.6463372410067E-05
(PID.TID 0000.0001) %MON g__dynstat_g_eta_mean        =  -3.7269474719122E-18
(PID.TID 0000.0001) %MON g__dynstat_g_eta_sd          =   5.1224089242700E-05
(PID.TID 0000.0001) %MON g__dynstat_g_eta_del2        =   2.7133866496956E-06
(PID.TID 0000.0001) %MON g__dynstat_g_uvel_max        =   9.4216559102905E-05
(PID.TID 0000.0001) %MON g__dynstat_g_uvel_min        =  -2.8808943903606E-04
(PID.TID 0000.0001) %MON g__dynstat_g_uvel_mean       =   2.7600494900434E-08
(PID.TID 0000.0001) %MON g__dynstat_g_uvel_sd         =   6.4577073200191E-07
(PID.TID 0000.0001) %MON g__dynstat_g_uvel_del2       =   7.1047115853509E-08
(PID.TID 0000.0001) %MON g__dynstat_g_vvel_max        =   2.4668355748189E-04
(PID.TID 0000.0001) %MON g__dynstat_g_vvel_min        =  -3.8530004999496E-04
(PID.TID 0000.0001) %MON g__dynstat_g_vvel_mean       =  -1.6173087666486E-08
(PID.TID 0000.0001) %MON g__dynstat_g_vvel_sd         =   9.1766477298058E-07
(PID.TID 0000.0001) %MON g__dynstat_g_vvel_del2       =   7.0292844027167E-08
(PID.TID 0000.0001) %MON g__dynstat_g_wvel_max        =   1.2674977714663E-07
(PID.TID 0000.0001) %MON g__dynstat_g_wvel_min        =  -1.2387987337180E-07
(PID.TID 0000.0001) %MON g__dynstat_g_wvel_mean       =  -1.2898869214830E-27
(PID.TID 0000.0001) %MON g__dynstat_g_wvel_sd         =   7.2832763195799E-10
(PID.TID 0000.0001) %MON g__dynstat_g_wvel_del2       =   1.2406141736677E-10
(PID.TID 0000.0001) %MON g__dynstat_g_theta_max       =   8.2517438395028E-01
(PID.TID 0000.0001) %MON g__dynstat_g_theta_min       =  -1.5104498023300E-03
(PID.TID 0000.0001) %MON g__dynstat_g_theta_mean      =   2.9237250470282E-06
(PID.TID 0000.0001) %MON g__dynstat_g_theta_sd        =   1.2348611642610E-03
(PID.TID 0000.0001) %MON g__dynstat_g_theta_del2      =   4.8589140631079E-05
(PID.TID 0000.0001) %MON g__dynstat_g_salt_max        =   5.4179167012190E-03
(PID.TID 0000.0001) %MON g__dynstat_g_salt_min        =  -9.7029224589209E-03
(PID.TID 0000.0001) %MON g__dynstat_g_salt_mean       =  -9.1186935979362E-10
(PID.TID 0000.0001) %MON g__dynstat_g_salt_sd         =   1.7342146812470E-05
(PID.TID 0000.0001) %MON g__dynstat_g_salt_del2       =   1.1442724341608E-06
(PID.TID 0000.0001) %MON g__dynstat_g_sst_max         =   8.2517438395028E-01
(PID.TID 0000.0001) %MON g__dynstat_g_sst_min         =  -3.2839080057787E-05
(PID.TID 0000.0001) %MON g__dynstat_g_sst_mean        =   1.5955739388429E-04
(PID.TID 0000.0001) %MON g__dynstat_g_sst_sd          =   1.0456175960884E-02
(PID.TID 0000.0001) %MON g__dynstat_g_sst_del2        =   4.9850291511638E-04
(PID.TID 0000.0001) %MON g__dynstat_g_sss_max         =   5.4179167012190E-03
(PID.TID 0000.0001) %MON g__dynstat_g_sss_min         =  -9.7029224589209E-03
(PID.TID 0000.0001) %MON g__dynstat_g_sss_mean        =   2.9359209126382E-09
(PID.TID 0000.0001) %MON g__dynstat_g_sss_sd          =   1.4768615327068E-04
(PID.TID 0000.0001) %MON g__dynstat_g_sss_del2        =   1.1654185114224E-05
(PID.TID 0000.0001) %MON g__extforcing_g_qnet_max     =   0.0000000000000E+00
(PID.TID 0000.0001) %MON g__extforcing_g_qnet_min     =   0.0000000000000E+00
(PID.TID 0000.0001) %MON g__extforcing_g_qnet_mean    =   0.0000000000000E+00
(PID.TID 0000.0001) %MON g__extforcing_g_qnet_sd      =   0.0000000000000E+00
(PID.TID 0000.0001) %MON g__extforcing_g_qnet_del2    =   0.0000000000000E+00
(PID.TID 0000.0001) %MON g__extforcing_g_empmr_max    =   0.0000000000000E+00
(PID.TID 0000.0001) %MON g__extforcing_g_empmr_min    =   0.0000000000000E+00
(PID.TID 0000.0001) %MON g__extforcing_g_empmr_mean   =   0.0000000000000E+00
(PID.TID 0000.0001) %MON g__extforcing_g_empmr_sd     =   0.0000000000000E+00
(PID.TID 0000.0001) %MON g__extforcing_g_empmr_del2   =   0.0000000000000E+00
(PID.TID 0000.0001) %MON g__extforcing_g_fu_max       =   0.0000000000000E+00
(PID.TID 0000.0001) %MON g__extforcing_g_fu_min       =   0.0000000000000E+00
(PID.TID 0000.0001) %MON g__extforcing_g_fu_mean      =   0.0000000000000E+00
(PID.TID 0000.0001) %MON g__extforcing_g_fu_sd        =   0.0000000000000E+00
(PID.TID 0000.0001) %MON g__extforcing_g_fu_del2      =   0.0000000000000E+00
(PID.TID 0000.0001) %MON g__extforcing_g_fv_max       =   0.0000000000000E+00
(PID.TID 0000.0001) %MON g__extforcing_g_fv_min       =   0.0000000000000E+00
(PID.TID 0000.0001) %MON g__extforcing_g_fv_mean      =   0.0000000000000E+00
(PID.TID 0000.0001) %MON g__extforcing_g_fv_sd        =   0.0000000000000E+00
(PID.TID 0000.0001) %MON g__extforcing_g_fv_del2      =   0.0000000000000E+00
(PID.TID 0000.0001) %MON g__g_vcfl_g_uvel_max         =   1.0153042834070E-04
(PID.TID 0000.0001) %MON g__g_vcfl_g_vvel_max         =   3.7428810122076E-05
(PID.TID 0000.0001) %MON g__g_vcfl_g_wvel_max         =   1.6523889520422E-04
(PID.TID 0000.0001) %MON g__g_vcfl_g_W_hf_max         =   2.1633846399033E-04
(PID.TID 0000.0001) // =======================================================
(PID.TID 0000.0001) // End MONITOR dynamic field statistics
(PID.TID 0000.0001) // =======================================================
 cg2d: Sum(rhs),rhsMax =   3.27770987964109E-12  1.79013886035477E-02
 cg2d: Sum(rhs),rhsMax =  -1.30646882201546E-12  8.84823931929403E+00
(PID.TID 0000.0001) // =======================================================
(PID.TID 0000.0001) // Begin MONITOR dynamic field statistics
(PID.TID 0000.0001) // =======================================================
(PID.TID 0000.0001) %MON g__time_tsnumber             =                    37
(PID.TID 0000.0001) %MON g__time_secondsf             =   1.5984000000000E+06
(PID.TID 0000.0001) %MON g__dynstat_g_eta_max         =   4.1752943868173E-03
(PID.TID 0000.0001) %MON g__dynstat_g_eta_min         =  -2.7371998770168E-05
(PID.TID 0000.0001) %MON g__dynstat_g_eta_mean        =  -3.8084176884866E-18
(PID.TID 0000.0001) %MON g__dynstat_g_eta_sd          =   5.2749037499761E-05
(PID.TID 0000.0001) %MON g__dynstat_g_eta_del2        =   2.7645974529116E-06
(PID.TID 0000.0001) %MON g__dynstat_g_uvel_max        =   4.4317473714008E-05
(PID.TID 0000.0001) %MON g__dynstat_g_uvel_min        =  -2.3137885422890E-04
(PID.TID 0000.0001) %MON g__dynstat_g_uvel_mean       =   2.7571020647722E-08
(PID.TID 0000.0001) %MON g__dynstat_g_uvel_sd         =   5.4426317569648E-07
(PID.TID 0000.0001) %MON g__dynstat_g_uvel_del2       =   6.5321448668422E-08
(PID.TID 0000.0001) %MON g__dynstat_g_vvel_max        =   2.4383263237718E-04
(PID.TID 0000.0001) %MON g__dynstat_g_vvel_min        =  -3.8124866824975E-04
(PID.TID 0000.0001) %MON g__dynstat_g_vvel_mean       =  -1.8813844733028E-08
(PID.TID 0000.0001) %MON g__dynstat_g_vvel_sd         =   9.1198249433880E-07
(PID.TID 0000.0001) %MON g__dynstat_g_vvel_del2       =   7.0717216552842E-08
(PID.TID 0000.0001) %MON g__dynstat_g_wvel_max        =   1.1670075380285E-07
(PID.TID 0000.0001) %MON g__dynstat_g_wvel_min        =  -6.9634816157121E-08
(PID.TID 0000.0001) %MON g__dynstat_g_wvel_mean       =   1.0477596942768E-27
(PID.TID 0000.0001) %MON g__dynstat_g_wvel_sd         =   6.7382782632696E-10
(PID.TID 0000.0001) %MON g__dynstat_g_wvel_del2       =   1.1679341021476E-10
(PID.TID 0000.0001) %MON g__dynstat_g_theta_max       =   8.2642377852374E-01
(PID.TID 0000.0001) %MON g__dynstat_g_theta_min       =  -1.4659154039686E-03
(PID.TID 0000.0001) %MON g__dynstat_g_theta_mean      =   2.9782977241136E-06
(PID.TID 0000.0001) %MON g__dynstat_g_theta_sd        =   1.2406576721650E-03
(PID.TID 0000.0001) %MON g__dynstat_g_theta_del2      =   4.8968928743764E-05
(PID.TID 0000.0001) %MON g__dynstat_g_salt_max        =   5.5840050678298E-03
(PID.TID 0000.0001) %MON g__dynstat_g_salt_min        =  -1.0062705569148E-02
(PID.TID 0000.0001) %MON g__dynstat_g_salt_mean       =  -1.4031474811439E-09
(PID.TID 0000.0001) %MON g__dynstat_g_salt_sd         =   1.7899378236205E-05
(PID.TID 0000.0001) %MON g__dynstat_g_salt_del2       =   1.1667396221214E-06
(PID.TID 0000.0001) %MON g__dynstat_g_sst_max         =   8.2642377852374E-01
(PID.TID 0000.0001) %MON g__dynstat_g_sst_min         =  -3.5159036089709E-05
(PID.TID 0000.0001) %MON g__dynstat_g_sst_mean        =   1.6073171420102E-04
(PID.TID 0000.0001) %MON g__dynstat_g_sst_sd          =   1.0476361202749E-02
(PID.TID 0000.0001) %MON g__dynstat_g_sst_del2        =   4.9823868049812E-04
(PID.TID 0000.0001) %MON g__dynstat_g_sss_max         =   5.5840050678298E-03
(PID.TID 0000.0001) %MON g__dynstat_g_sss_min         =  -1.0062705569148E-02
(PID.TID 0000.0001) %MON g__dynstat_g_sss_mean        =   5.4852016683511E-10
(PID.TID 0000.0001) %MON g__dynstat_g_sss_sd          =   1.5303622877403E-04
(PID.TID 0000.0001) %MON g__dynstat_g_sss_del2        =   1.2047705168536E-05
(PID.TID 0000.0001) %MON g__extforcing_g_qnet_max     =   0.0000000000000E+00
(PID.TID 0000.0001) %MON g__extforcing_g_qnet_min     =   0.0000000000000E+00
(PID.TID 0000.0001) %MON g__extforcing_g_qnet_mean    =   0.0000000000000E+00
(PID.TID 0000.0001) %MON g__extforcing_g_qnet_sd      =   0.0000000000000E+00
(PID.TID 0000.0001) %MON g__extforcing_g_qnet_del2    =   0.0000000000000E+00
(PID.TID 0000.0001) %MON g__extforcing_g_empmr_max    =   0.0000000000000E+00
(PID.TID 0000.0001) %MON g__extforcing_g_empmr_min    =   0.0000000000000E+00
(PID.TID 0000.0001) %MON g__extforcing_g_empmr_mean   =   0.0000000000000E+00
(PID.TID 0000.0001) %MON g__extforcing_g_empmr_sd     =   0.0000000000000E+00
(PID.TID 0000.0001) %MON g__extforcing_g_empmr_del2   =   0.0000000000000E+00
(PID.TID 0000.0001) %MON g__extforcing_g_fu_max       =   0.0000000000000E+00
(PID.TID 0000.0001) %MON g__extforcing_g_fu_min       =   0.0000000000000E+00
(PID.TID 0000.0001) %MON g__extforcing_g_fu_mean      =   0.0000000000000E+00
(PID.TID 0000.0001) %MON g__extforcing_g_fu_sd        =   0.0000000000000E+00
(PID.TID 0000.0001) %MON g__extforcing_g_fu_del2      =   0.0000000000000E+00
(PID.TID 0000.0001) %MON g__extforcing_g_fv_max       =   0.0000000000000E+00
(PID.TID 0000.0001) %MON g__extforcing_g_fv_min       =   0.0000000000000E+00
(PID.TID 0000.0001) %MON g__extforcing_g_fv_mean      =   0.0000000000000E+00
(PID.TID 0000.0001) %MON g__extforcing_g_fv_sd        =   0.0000000000000E+00
(PID.TID 0000.0001) %MON g__extforcing_g_fv_del2      =   0.0000000000000E+00
(PID.TID 0000.0001) %MON g__g_vcfl_g_uvel_max         =   8.1544100531570E-05
(PID.TID 0000.0001) %MON g__g_vcfl_g_vvel_max         =   3.7035250873704E-05
(PID.TID 0000.0001) %MON g__g_vcfl_g_wvel_max         =   1.7027163336357E-04
(PID.TID 0000.0001) %MON g__g_vcfl_g_W_hf_max         =   2.0165890257132E-04
(PID.TID 0000.0001) // =======================================================
(PID.TID 0000.0001) // End MONITOR dynamic field statistics
(PID.TID 0000.0001) // =======================================================
 cg2d: Sum(rhs),rhsMax =   3.27081075595425E-12  1.83231076561621E-02
 cg2d: Sum(rhs),rhsMax =  -1.11412962189306E-12  8.53412765044119E+00
(PID.TID 0000.0001) // =======================================================
(PID.TID 0000.0001) // Begin MONITOR dynamic field statistics
(PID.TID 0000.0001) // =======================================================
(PID.TID 0000.0001) %MON g__time_tsnumber             =                    38
(PID.TID 0000.0001) %MON g__time_secondsf             =   1.6416000000000E+06
(PID.TID 0000.0001) %MON g__dynstat_g_eta_max         =   4.2905676391192E-03
(PID.TID 0000.0001) %MON g__dynstat_g_eta_min         =  -2.8152790026399E-05
(PID.TID 0000.0001) %MON g__dynstat_g_eta_mean        =  -4.1684488610774E-18
(PID.TID 0000.0001) %MON g__dynstat_g_eta_sd          =   5.4252786891872E-05
(PID.TID 0000.0001) %MON g__dynstat_g_eta_del2        =   2.8097579527611E-06
(PID.TID 0000.0001) %MON g__dynstat_g_uvel_max        =   3.3527553208778E-05
(PID.TID 0000.0001) %MON g__dynstat_g_uvel_min        =  -1.6993556818927E-04
(PID.TID 0000.0001) %MON g__dynstat_g_uvel_mean       =   2.8103059234895E-08
(PID.TID 0000.0001) %MON g__dynstat_g_uvel_sd         =   4.5568360792157E-07
(PID.TID 0000.0001) %MON g__dynstat_g_uvel_del2       =   5.9034790604371E-08
(PID.TID 0000.0001) %MON g__dynstat_g_vvel_max        =   2.4585503173473E-04
(PID.TID 0000.0001) %MON g__dynstat_g_vvel_min        =  -3.7513883578964E-04
(PID.TID 0000.0001) %MON g__dynstat_g_vvel_mean       =  -2.1230115260260E-08
(PID.TID 0000.0001) %MON g__dynstat_g_vvel_sd         =   9.0580985621074E-07
(PID.TID 0000.0001) %MON g__dynstat_g_vvel_del2       =   7.0704389009046E-08
(PID.TID 0000.0001) %MON g__dynstat_g_wvel_max        =   1.0653081765167E-07
(PID.TID 0000.0001) %MON g__dynstat_g_wvel_min        =  -1.7134854190166E-08
(PID.TID 0000.0001) %MON g__dynstat_g_wvel_mean       =   1.7129588070548E-27
(PID.TID 0000.0001) %MON g__dynstat_g_wvel_sd         =   6.3860800648090E-10
(PID.TID 0000.0001) %MON g__dynstat_g_wvel_del2       =   1.0949169830601E-10
(PID.TID 0000.0001) %MON g__dynstat_g_theta_max       =   8.2687187406645E-01
(PID.TID 0000.0001) %MON g__dynstat_g_theta_min       =  -1.4207185260846E-03
(PID.TID 0000.0001) %MON g__dynstat_g_theta_mean      =   3.0293361703466E-06
(PID.TID 0000.0001) %MON g__dynstat_g_theta_sd        =   1.2452043434005E-03
(PID.TID 0000.0001) %MON g__dynstat_g_theta_del2      =   4.9281727935348E-05
(PID.TID 0000.0001) %MON g__dynstat_g_salt_max        =   5.7453730318973E-03
(PID.TID 0000.0001) %MON g__dynstat_g_salt_min        =  -1.0403385317943E-02
(PID.TID 0000.0001) %MON g__dynstat_g_salt_mean       =  -1.7884522282380E-09
(PID.TID 0000.0001) %MON g__dynstat_g_salt_sd         =   1.8437586119925E-05
(PID.TID 0000.0001) %MON g__dynstat_g_salt_del2       =   1.1886713047367E-06
(PID.TID 0000.0001) %MON g__dynstat_g_sst_max         =   8.2687187406645E-01
(PID.TID 0000.0001) %MON g__dynstat_g_sst_min         =  -3.8698634746064E-05
(PID.TID 0000.0001) %MON g__dynstat_g_sst_mean        =   1.6173341294083E-04
(PID.TID 0000.0001) %MON g__dynstat_g_sst_sd          =   1.0486425922338E-02
(PID.TID 0000.0001) %MON g__dynstat_g_sst_del2        =   4.9751097278563E-04
(PID.TID 0000.0001) %MON g__dynstat_g_sss_max         =   5.7453730318973E-03
(PID.TID 0000.0001) %MON g__dynstat_g_sss_min         =  -1.0403385317943E-02
(PID.TID 0000.0001) %MON g__dynstat_g_sss_mean        =  -2.5407127545661E-10
(PID.TID 0000.0001) %MON g__dynstat_g_sss_sd          =   1.5813067192561E-04
(PID.TID 0000.0001) %MON g__dynstat_g_sss_del2        =   1.2422939655973E-05
(PID.TID 0000.0001) %MON g__extforcing_g_qnet_max     =   0.0000000000000E+00
(PID.TID 0000.0001) %MON g__extforcing_g_qnet_min     =   0.0000000000000E+00
(PID.TID 0000.0001) %MON g__extforcing_g_qnet_mean    =   0.0000000000000E+00
(PID.TID 0000.0001) %MON g__extforcing_g_qnet_sd      =   0.0000000000000E+00
(PID.TID 0000.0001) %MON g__extforcing_g_qnet_del2    =   0.0000000000000E+00
(PID.TID 0000.0001) %MON g__extforcing_g_empmr_max    =   0.0000000000000E+00
(PID.TID 0000.0001) %MON g__extforcing_g_empmr_min    =   0.0000000000000E+00
(PID.TID 0000.0001) %MON g__extforcing_g_empmr_mean   =   0.0000000000000E+00
(PID.TID 0000.0001) %MON g__extforcing_g_empmr_sd     =   0.0000000000000E+00
(PID.TID 0000.0001) %MON g__extforcing_g_empmr_del2   =   0.0000000000000E+00
(PID.TID 0000.0001) %MON g__extforcing_g_fu_max       =   0.0000000000000E+00
(PID.TID 0000.0001) %MON g__extforcing_g_fu_min       =   0.0000000000000E+00
(PID.TID 0000.0001) %MON g__extforcing_g_fu_mean      =   0.0000000000000E+00
(PID.TID 0000.0001) %MON g__extforcing_g_fu_sd        =   0.0000000000000E+00
(PID.TID 0000.0001) %MON g__extforcing_g_fu_del2      =   0.0000000000000E+00
(PID.TID 0000.0001) %MON g__extforcing_g_fv_max       =   0.0000000000000E+00
(PID.TID 0000.0001) %MON g__extforcing_g_fv_min       =   0.0000000000000E+00
(PID.TID 0000.0001) %MON g__extforcing_g_fv_mean      =   0.0000000000000E+00
(PID.TID 0000.0001) %MON g__extforcing_g_fv_sd        =   0.0000000000000E+00
(PID.TID 0000.0001) %MON g__extforcing_g_fv_del2      =   0.0000000000000E+00
(PID.TID 0000.0001) %MON g__g_vcfl_g_uvel_max         =   5.9889842148699E-05
(PID.TID 0000.0001) %MON g__g_vcfl_g_vvel_max         =   3.6441729645170E-05
(PID.TID 0000.0001) %MON g__g_vcfl_g_wvel_max         =   1.6599348331471E-04
(PID.TID 0000.0001) %MON g__g_vcfl_g_W_hf_max         =   1.8408525290208E-04
(PID.TID 0000.0001) // =======================================================
(PID.TID 0000.0001) // End MONITOR dynamic field statistics
(PID.TID 0000.0001) // =======================================================
 cg2d: Sum(rhs),rhsMax =   3.50790887368518E-12  1.87058038990183E-02
 cg2d: Sum(rhs),rhsMax =  -1.14792203520508E-12  8.14100424312465E+00
(PID.TID 0000.0001) // =======================================================
(PID.TID 0000.0001) // Begin MONITOR dynamic field statistics
(PID.TID 0000.0001) // =======================================================
(PID.TID 0000.0001) %MON g__time_tsnumber             =                    39
(PID.TID 0000.0001) %MON g__time_secondsf             =   1.6848000000000E+06
(PID.TID 0000.0001) %MON g__dynstat_g_eta_max         =   4.3970585290077E-03
(PID.TID 0000.0001) %MON g__dynstat_g_eta_min         =  -2.9033115792815E-05
(PID.TID 0000.0001) %MON g__dynstat_g_eta_mean        =  -4.3104710730229E-18
(PID.TID 0000.0001) %MON g__dynstat_g_eta_sd          =   5.5658838869161E-05
(PID.TID 0000.0001) %MON g__dynstat_g_eta_del2        =   2.8525578017886E-06
(PID.TID 0000.0001) %MON g__dynstat_g_uvel_max        =   3.6392273209442E-05
(PID.TID 0000.0001) %MON g__dynstat_g_uvel_min        =  -1.1279377773815E-04
(PID.TID 0000.0001) %MON g__dynstat_g_uvel_mean       =   2.9182014128954E-08
(PID.TID 0000.0001) %MON g__dynstat_g_uvel_sd         =   4.0011518341922E-07
(PID.TID 0000.0001) %MON g__dynstat_g_uvel_del2       =   5.3264570837927E-08
(PID.TID 0000.0001) %MON g__dynstat_g_vvel_max        =   2.5264299140100E-04
(PID.TID 0000.0001) %MON g__dynstat_g_vvel_min        =  -3.6711700181010E-04
(PID.TID 0000.0001) %MON g__dynstat_g_vvel_mean       =  -2.3257723465017E-08
(PID.TID 0000.0001) %MON g__dynstat_g_vvel_sd         =   8.9942435556032E-07
(PID.TID 0000.0001) %MON g__dynstat_g_vvel_del2       =   7.0315579299095E-08
(PID.TID 0000.0001) %MON g__dynstat_g_wvel_max        =   9.5221078204023E-08
(PID.TID 0000.0001) %MON g__dynstat_g_wvel_min        =  -3.2345192960027E-08
(PID.TID 0000.0001) %MON g__dynstat_g_wvel_mean       =   4.9446977784768E-28
(PID.TID 0000.0001) %MON g__dynstat_g_wvel_sd         =   6.2999829362462E-10
(PID.TID 0000.0001) %MON g__dynstat_g_wvel_del2       =   1.0584213412961E-10
(PID.TID 0000.0001) %MON g__dynstat_g_theta_max       =   8.2635036756418E-01
(PID.TID 0000.0001) %MON g__dynstat_g_theta_min       =  -1.3763494629942E-03
(PID.TID 0000.0001) %MON g__dynstat_g_theta_mean      =   3.0755554107051E-06
(PID.TID 0000.0001) %MON g__dynstat_g_theta_sd        =   1.2481736531785E-03
(PID.TID 0000.0001) %MON g__dynstat_g_theta_del2      =   4.9512113731249E-05
(PID.TID 0000.0001) %MON g__dynstat_g_salt_max        =   5.8995318083039E-03
(PID.TID 0000.0001) %MON g__dynstat_g_salt_min        =  -1.0721001288966E-02
(PID.TID 0000.0001) %MON g__dynstat_g_salt_mean       =  -2.0563335386220E-09
(PID.TID 0000.0001) %MON g__dynstat_g_salt_sd         =   1.8948694600509E-05
(PID.TID 0000.0001) %MON g__dynstat_g_salt_del2       =   1.2099352202252E-06
(PID.TID 0000.0001) %MON g__dynstat_g_sst_max         =   8.2635036756418E-01
(PID.TID 0000.0001) %MON g__dynstat_g_sst_min         =  -4.3392029418473E-05
(PID.TID 0000.0001) %MON g__dynstat_g_sst_mean        =   1.6251915440963E-04
(PID.TID 0000.0001) %MON g__dynstat_g_sst_sd          =   1.0484210995006E-02
(PID.TID 0000.0001) %MON g__dynstat_g_sst_del2        =   4.9622829359617E-04
(PID.TID 0000.0001) %MON g__dynstat_g_sss_max         =   5.8995318083039E-03
(PID.TID 0000.0001) %MON g__dynstat_g_sss_min         =  -1.0721001288966E-02
(PID.TID 0000.0001) %MON g__dynstat_g_sss_mean        =   6.6687421919394E-10
(PID.TID 0000.0001) %MON g__dynstat_g_sss_sd          =   1.6290461187461E-04
(PID.TID 0000.0001) %MON g__dynstat_g_sss_del2        =   1.2774800460194E-05
(PID.TID 0000.0001) %MON g__extforcing_g_qnet_max     =   0.0000000000000E+00
(PID.TID 0000.0001) %MON g__extforcing_g_qnet_min     =   0.0000000000000E+00
(PID.TID 0000.0001) %MON g__extforcing_g_qnet_mean    =   0.0000000000000E+00
(PID.TID 0000.0001) %MON g__extforcing_g_qnet_sd      =   0.0000000000000E+00
(PID.TID 0000.0001) %MON g__extforcing_g_qnet_del2    =   0.0000000000000E+00
(PID.TID 0000.0001) %MON g__extforcing_g_empmr_max    =   0.0000000000000E+00
(PID.TID 0000.0001) %MON g__extforcing_g_empmr_min    =   0.0000000000000E+00
(PID.TID 0000.0001) %MON g__extforcing_g_empmr_mean   =   0.0000000000000E+00
(PID.TID 0000.0001) %MON g__extforcing_g_empmr_sd     =   0.0000000000000E+00
(PID.TID 0000.0001) %MON g__extforcing_g_empmr_del2   =   0.0000000000000E+00
(PID.TID 0000.0001) %MON g__extforcing_g_fu_max       =   0.0000000000000E+00
(PID.TID 0000.0001) %MON g__extforcing_g_fu_min       =   0.0000000000000E+00
(PID.TID 0000.0001) %MON g__extforcing_g_fu_mean      =   0.0000000000000E+00
(PID.TID 0000.0001) %MON g__extforcing_g_fu_sd        =   0.0000000000000E+00
(PID.TID 0000.0001) %MON g__extforcing_g_fu_del2      =   0.0000000000000E+00
(PID.TID 0000.0001) %MON g__extforcing_g_fv_max       =   0.0000000000000E+00
(PID.TID 0000.0001) %MON g__extforcing_g_fv_min       =   0.0000000000000E+00
(PID.TID 0000.0001) %MON g__extforcing_g_fv_mean      =   0.0000000000000E+00
(PID.TID 0000.0001) %MON g__extforcing_g_fv_sd        =   0.0000000000000E+00
(PID.TID 0000.0001) %MON g__extforcing_g_fv_del2      =   0.0000000000000E+00
(PID.TID 0000.0001) %MON g__g_vcfl_g_uvel_max         =   3.7482422016540E-05
(PID.TID 0000.0001) %MON g__g_vcfl_g_vvel_max         =   3.5662472801433E-05
(PID.TID 0000.0001) %MON g__g_vcfl_g_wvel_max         =   1.5334688143942E-04
(PID.TID 0000.0001) %MON g__g_vcfl_g_W_hf_max         =   1.6454202313655E-04
(PID.TID 0000.0001) // =======================================================
(PID.TID 0000.0001) // End MONITOR dynamic field statistics
(PID.TID 0000.0001) // =======================================================
 cg2d: Sum(rhs),rhsMax =   3.56486250194532E-12  1.90341332357825E-02
 cg2d: Sum(rhs),rhsMax =  -1.03755892766344E-12  7.67572566966594E+00
(PID.TID 0000.0001) // =======================================================
(PID.TID 0000.0001) // Begin MONITOR dynamic field statistics
(PID.TID 0000.0001) // =======================================================
(PID.TID 0000.0001) %MON g__time_tsnumber             =                    40
(PID.TID 0000.0001) %MON g__time_secondsf             =   1.7280000000000E+06
(PID.TID 0000.0001) %MON g__dynstat_g_eta_max         =   4.4899001673075E-03
(PID.TID 0000.0001) %MON g__dynstat_g_eta_min         =  -3.8132460988934E-05
(PID.TID 0000.0001) %MON g__dynstat_g_eta_mean        =  -4.2218093748603E-18
(PID.TID 0000.0001) %MON g__dynstat_g_eta_sd          =   5.6899854496566E-05
(PID.TID 0000.0001) %MON g__dynstat_g_eta_del2        =   2.8939527678406E-06
(PID.TID 0000.0001) %MON g__dynstat_g_uvel_max        =   3.8418461088416E-05
(PID.TID 0000.0001) %MON g__dynstat_g_uvel_min        =  -1.1575619455549E-04
(PID.TID 0000.0001) %MON g__dynstat_g_uvel_mean       =   3.0757411005372E-08
(PID.TID 0000.0001) %MON g__dynstat_g_uvel_sd         =   3.9594215071500E-07
(PID.TID 0000.0001) %MON g__dynstat_g_uvel_del2       =   5.0651107359281E-08
(PID.TID 0000.0001) %MON g__dynstat_g_vvel_max        =   2.6384640898944E-04
(PID.TID 0000.0001) %MON g__dynstat_g_vvel_min        =  -3.5746032975717E-04
(PID.TID 0000.0001) %MON g__dynstat_g_vvel_mean       =  -2.4759503008633E-08
(PID.TID 0000.0001) %MON g__dynstat_g_vvel_sd         =   8.9369580135630E-07
(PID.TID 0000.0001) %MON g__dynstat_g_vvel_del2       =   6.9746726975919E-08
(PID.TID 0000.0001) %MON g__dynstat_g_wvel_max        =   9.8417011836773E-08
(PID.TID 0000.0001) %MON g__dynstat_g_wvel_min        =  -5.8487070808058E-08
(PID.TID 0000.0001) %MON g__dynstat_g_wvel_mean       =  -3.4734068371889E-27
(PID.TID 0000.0001) %MON g__dynstat_g_wvel_sd         =   6.5329000919989E-10
(PID.TID 0000.0001) %MON g__dynstat_g_wvel_del2       =   1.0882641291264E-10
(PID.TID 0000.0001) %MON g__dynstat_g_theta_max       =   8.2474136233635E-01
(PID.TID 0000.0001) %MON g__dynstat_g_theta_min       =  -1.3342253711429E-03
(PID.TID 0000.0001) %MON g__dynstat_g_theta_mean      =   3.1158790011812E-06
(PID.TID 0000.0001) %MON g__dynstat_g_theta_sd        =   1.2493209774836E-03
(PID.TID 0000.0001) %MON g__dynstat_g_theta_del2      =   4.9648858500341E-05
(PID.TID 0000.0001) %MON g__dynstat_g_salt_max        =   6.0444056088897E-03
(PID.TID 0000.0001) %MON g__dynstat_g_salt_min        =  -1.1012399507091E-02
(PID.TID 0000.0001) %MON g__dynstat_g_salt_mean       =  -2.2047951883719E-09
(PID.TID 0000.0001) %MON g__dynstat_g_salt_sd         =   1.9425782009094E-05
(PID.TID 0000.0001) %MON g__dynstat_g_salt_del2       =   1.2305024733917E-06
(PID.TID 0000.0001) %MON g__dynstat_g_sst_max         =   8.2474136233635E-01
(PID.TID 0000.0001) %MON g__dynstat_g_sst_min         =  -4.9022416609666E-05
(PID.TID 0000.0001) %MON g__dynstat_g_sst_mean        =   1.6305592409504E-04
(PID.TID 0000.0001) %MON g__dynstat_g_sst_sd          =   1.0468193773339E-02
(PID.TID 0000.0001) %MON g__dynstat_g_sst_del2        =   4.9432511695180E-04
(PID.TID 0000.0001) %MON g__dynstat_g_sss_max         =   6.0444056088897E-03
(PID.TID 0000.0001) %MON g__dynstat_g_sss_min         =  -1.1012399507091E-02
(PID.TID 0000.0001) %MON g__dynstat_g_sss_mean        =   3.1420321806704E-09
(PID.TID 0000.0001) %MON g__dynstat_g_sss_sd          =   1.6730540749845E-04
(PID.TID 0000.0001) %MON g__dynstat_g_sss_del2        =   1.3100119051604E-05
(PID.TID 0000.0001) %MON g__extforcing_g_qnet_max     =   0.0000000000000E+00
(PID.TID 0000.0001) %MON g__extforcing_g_qnet_min     =   0.0000000000000E+00
(PID.TID 0000.0001) %MON g__extforcing_g_qnet_mean    =   0.0000000000000E+00
(PID.TID 0000.0001) %MON g__extforcing_g_qnet_sd      =   0.0000000000000E+00
(PID.TID 0000.0001) %MON g__extforcing_g_qnet_del2    =   0.0000000000000E+00
(PID.TID 0000.0001) %MON g__extforcing_g_empmr_max    =   0.0000000000000E+00
(PID.TID 0000.0001) %MON g__extforcing_g_empmr_min    =   0.0000000000000E+00
(PID.TID 0000.0001) %MON g__extforcing_g_empmr_mean   =   0.0000000000000E+00
(PID.TID 0000.0001) %MON g__extforcing_g_empmr_sd     =   0.0000000000000E+00
(PID.TID 0000.0001) %MON g__extforcing_g_empmr_del2   =   0.0000000000000E+00
(PID.TID 0000.0001) %MON g__extforcing_g_fu_max       =   0.0000000000000E+00
(PID.TID 0000.0001) %MON g__extforcing_g_fu_min       =   0.0000000000000E+00
(PID.TID 0000.0001) %MON g__extforcing_g_fu_mean      =   0.0000000000000E+00
(PID.TID 0000.0001) %MON g__extforcing_g_fu_sd        =   0.0000000000000E+00
(PID.TID 0000.0001) %MON g__extforcing_g_fu_del2      =   0.0000000000000E+00
(PID.TID 0000.0001) %MON g__extforcing_g_fv_max       =   0.0000000000000E+00
(PID.TID 0000.0001) %MON g__extforcing_g_fv_min       =   0.0000000000000E+00
(PID.TID 0000.0001) %MON g__extforcing_g_fv_mean      =   0.0000000000000E+00
(PID.TID 0000.0001) %MON g__extforcing_g_fv_sd        =   0.0000000000000E+00
(PID.TID 0000.0001) %MON g__extforcing_g_fv_del2      =   0.0000000000000E+00
(PID.TID 0000.0001) %MON g__g_vcfl_g_uvel_max         =   4.0795580898880E-05
(PID.TID 0000.0001) %MON g__g_vcfl_g_vvel_max         =   3.4724404548690E-05
(PID.TID 0000.0001) %MON g__g_vcfl_g_wvel_max         =   1.3369195915165E-04
(PID.TID 0000.0001) %MON g__g_vcfl_g_W_hf_max         =   1.7006459645394E-04
(PID.TID 0000.0001) // =======================================================
(PID.TID 0000.0001) // End MONITOR dynamic field statistics
(PID.TID 0000.0001) // =======================================================
 myIter=  40
(PID.TID 0000.0001) // Model state written, timestep        40
(PID.TID 0000.0001) 
 cg2d: Sum(rhs),rhsMax =   3.44400686237510E-12  1.92964595816584E-02
 cg2d: Sum(rhs),rhsMax =  -6.19490569953030E-13  7.14638778751145E+00
(PID.TID 0000.0001) // =======================================================
(PID.TID 0000.0001) // Begin MONITOR dynamic field statistics
(PID.TID 0000.0001) // =======================================================
(PID.TID 0000.0001) %MON g__time_tsnumber             =                    41
(PID.TID 0000.0001) %MON g__time_secondsf             =   1.7712000000000E+06
(PID.TID 0000.0001) %MON g__dynstat_g_eta_max         =   4.5653404608249E-03
(PID.TID 0000.0001) %MON g__dynstat_g_eta_min         =  -4.7951859611826E-05
(PID.TID 0000.0001) %MON g__dynstat_g_eta_mean        =  -4.2335895050957E-18
(PID.TID 0000.0001) %MON g__dynstat_g_eta_sd          =   5.7921136623696E-05
(PID.TID 0000.0001) %MON g__dynstat_g_eta_del2        =   2.9271086746513E-06
(PID.TID 0000.0001) %MON g__dynstat_g_uvel_max        =   5.0340720851564E-05
(PID.TID 0000.0001) %MON g__dynstat_g_uvel_min        =  -1.6552813900556E-04
(PID.TID 0000.0001) %MON g__dynstat_g_uvel_mean       =   3.2747901661227E-08
(PID.TID 0000.0001) %MON g__dynstat_g_uvel_sd         =   4.4183833623914E-07
(PID.TID 0000.0001) %MON g__dynstat_g_uvel_del2       =   5.4082920719433E-08
(PID.TID 0000.0001) %MON g__dynstat_g_vvel_max        =   2.7890608202778E-04
(PID.TID 0000.0001) %MON g__dynstat_g_vvel_min        =  -3.4654389644210E-04
(PID.TID 0000.0001) %MON g__dynstat_g_vvel_mean       =  -2.5630488510226E-08
(PID.TID 0000.0001) %MON g__dynstat_g_vvel_sd         =   8.8990952260481E-07
(PID.TID 0000.0001) %MON g__dynstat_g_vvel_del2       =   6.9025711101800E-08
(PID.TID 0000.0001) %MON g__dynstat_g_wvel_max        =   1.3345156973726E-07
(PID.TID 0000.0001) %MON g__dynstat_g_wvel_min        =  -8.5334521485424E-08
(PID.TID 0000.0001) %MON g__dynstat_g_wvel_mean       =  -4.8875619651728E-27
(PID.TID 0000.0001) %MON g__dynstat_g_wvel_sd         =   7.0654282820479E-10
(PID.TID 0000.0001) %MON g__dynstat_g_wvel_del2       =   1.1105049389783E-10
(PID.TID 0000.0001) %MON g__dynstat_g_theta_max       =   8.2196400834231E-01
(PID.TID 0000.0001) %MON g__dynstat_g_theta_min       =  -1.2957282505929E-03
(PID.TID 0000.0001) %MON g__dynstat_g_theta_mean      =   3.1494049130818E-06
(PID.TID 0000.0001) %MON g__dynstat_g_theta_sd        =   1.2484644681335E-03
(PID.TID 0000.0001) %MON g__dynstat_g_theta_del2      =   4.9681540625987E-05
(PID.TID 0000.0001) %MON g__dynstat_g_salt_max        =   6.1784282964236E-03
(PID.TID 0000.0001) %MON g__dynstat_g_salt_min        =  -1.1275050908382E-02
(PID.TID 0000.0001) %MON g__dynstat_g_salt_mean       =  -2.2400366106000E-09
(PID.TID 0000.0001) %MON g__dynstat_g_salt_sd         =   1.9863050072473E-05
(PID.TID 0000.0001) %MON g__dynstat_g_salt_del2       =   1.2496392731026E-06
(PID.TID 0000.0001) %MON g__dynstat_g_sst_max         =   8.2196400834231E-01
(PID.TID 0000.0001) %MON g__dynstat_g_sst_min         =  -5.5264292291528E-05
(PID.TID 0000.0001) %MON g__dynstat_g_sst_mean        =   1.6332158505758E-04
(PID.TID 0000.0001) %MON g__dynstat_g_sst_sd          =   1.0437321173024E-02
(PID.TID 0000.0001) %MON g__dynstat_g_sst_del2        =   4.9175762181080E-04
(PID.TID 0000.0001) %MON g__dynstat_g_sss_max         =   6.1784282964236E-03
(PID.TID 0000.0001) %MON g__dynstat_g_sss_min         =  -1.1275050908382E-02
(PID.TID 0000.0001) %MON g__dynstat_g_sss_mean        =   7.4819681313623E-09
(PID.TID 0000.0001) %MON g__dynstat_g_sss_sd          =   1.7129081644869E-04
(PID.TID 0000.0001) %MON g__dynstat_g_sss_del2        =   1.3395738128597E-05
(PID.TID 0000.0001) %MON g__extforcing_g_qnet_max     =   0.0000000000000E+00
(PID.TID 0000.0001) %MON g__extforcing_g_qnet_min     =   0.0000000000000E+00
(PID.TID 0000.0001) %MON g__extforcing_g_qnet_mean    =   0.0000000000000E+00
(PID.TID 0000.0001) %MON g__extforcing_g_qnet_sd      =   0.0000000000000E+00
(PID.TID 0000.0001) %MON g__extforcing_g_qnet_del2    =   0.0000000000000E+00
(PID.TID 0000.0001) %MON g__extforcing_g_empmr_max    =   0.0000000000000E+00
(PID.TID 0000.0001) %MON g__extforcing_g_empmr_min    =   0.0000000000000E+00
(PID.TID 0000.0001) %MON g__extforcing_g_empmr_mean   =   0.0000000000000E+00
(PID.TID 0000.0001) %MON g__extforcing_g_empmr_sd     =   0.0000000000000E+00
(PID.TID 0000.0001) %MON g__extforcing_g_empmr_del2   =   0.0000000000000E+00
(PID.TID 0000.0001) %MON g__extforcing_g_fu_max       =   0.0000000000000E+00
(PID.TID 0000.0001) %MON g__extforcing_g_fu_min       =   0.0000000000000E+00
(PID.TID 0000.0001) %MON g__extforcing_g_fu_mean      =   0.0000000000000E+00
(PID.TID 0000.0001) %MON g__extforcing_g_fu_sd        =   0.0000000000000E+00
(PID.TID 0000.0001) %MON g__extforcing_g_fu_del2      =   0.0000000000000E+00
(PID.TID 0000.0001) %MON g__extforcing_g_fv_max       =   0.0000000000000E+00
(PID.TID 0000.0001) %MON g__extforcing_g_fv_min       =   0.0000000000000E+00
(PID.TID 0000.0001) %MON g__extforcing_g_fv_mean      =   0.0000000000000E+00
(PID.TID 0000.0001) %MON g__extforcing_g_fv_sd        =   0.0000000000000E+00
(PID.TID 0000.0001) %MON g__extforcing_g_fv_del2      =   0.0000000000000E+00
(PID.TID 0000.0001) %MON g__g_vcfl_g_uvel_max         =   5.8336546150064E-05
(PID.TID 0000.0001) %MON g__g_vcfl_g_vvel_max         =   3.3663960591402E-05
(PID.TID 0000.0001) %MON g__g_vcfl_g_wvel_max         =   1.0863402266501E-04
(PID.TID 0000.0001) %MON g__g_vcfl_g_W_hf_max         =   2.2983684548152E-04
(PID.TID 0000.0001) // =======================================================
(PID.TID 0000.0001) // End MONITOR dynamic field statistics
(PID.TID 0000.0001) // =======================================================
 cg2d: Sum(rhs),rhsMax =   3.41975230230364E-12  1.94848316153793E-02
 cg2d: Sum(rhs),rhsMax =  -4.48079073844809E-13  7.16032443393138E+00
(PID.TID 0000.0001) // =======================================================
(PID.TID 0000.0001) // Begin MONITOR dynamic field statistics
(PID.TID 0000.0001) // =======================================================
(PID.TID 0000.0001) %MON g__time_tsnumber             =                    42
(PID.TID 0000.0001) %MON g__time_secondsf             =   1.8144000000000E+06
(PID.TID 0000.0001) %MON g__dynstat_g_eta_max         =   4.6208129243344E-03
(PID.TID 0000.0001) %MON g__dynstat_g_eta_min         =  -5.5409013405659E-05
(PID.TID 0000.0001) %MON g__dynstat_g_eta_mean        =  -4.3174090965918E-18
(PID.TID 0000.0001) %MON g__dynstat_g_eta_sd          =   5.8683202409790E-05
(PID.TID 0000.0001) %MON g__dynstat_g_eta_del2        =   2.9497147441620E-06
(PID.TID 0000.0001) %MON g__dynstat_g_uvel_max        =   8.7546784613923E-05
(PID.TID 0000.0001) %MON g__dynstat_g_uvel_min        =  -2.1066957867127E-04
(PID.TID 0000.0001) %MON g__dynstat_g_uvel_mean       =   3.5047873712116E-08
(PID.TID 0000.0001) %MON g__dynstat_g_uvel_sd         =   5.1754228328934E-07
(PID.TID 0000.0001) %MON g__dynstat_g_uvel_del2       =   5.7754438207116E-08
(PID.TID 0000.0001) %MON g__dynstat_g_vvel_max        =   2.9709667356357E-04
(PID.TID 0000.0001) %MON g__dynstat_g_vvel_min        =  -3.3480193851058E-04
(PID.TID 0000.0001) %MON g__dynstat_g_vvel_mean       =  -2.5800359906880E-08
(PID.TID 0000.0001) %MON g__dynstat_g_vvel_sd         =   8.8942019478410E-07
(PID.TID 0000.0001) %MON g__dynstat_g_vvel_del2       =   6.8919137369450E-08
(PID.TID 0000.0001) %MON g__dynstat_g_wvel_max        =   1.7250807573184E-07
(PID.TID 0000.0001) %MON g__dynstat_g_wvel_min        =  -1.1141305750986E-07
(PID.TID 0000.0001) %MON g__dynstat_g_wvel_mean       =   7.1312582294237E-28
(PID.TID 0000.0001) %MON g__dynstat_g_wvel_sd         =   7.8016378665591E-10
(PID.TID 0000.0001) %MON g__dynstat_g_wvel_del2       =   1.1218216386052E-10
(PID.TID 0000.0001) %MON g__dynstat_g_theta_max       =   8.1796732208571E-01
(PID.TID 0000.0001) %MON g__dynstat_g_theta_min       =  -1.2622589793865E-03
(PID.TID 0000.0001) %MON g__dynstat_g_theta_mean      =   3.1753957147720E-06
(PID.TID 0000.0001) %MON g__dynstat_g_theta_sd        =   1.2454749567872E-03
(PID.TID 0000.0001) %MON g__dynstat_g_theta_del2      =   4.9608902337222E-05
(PID.TID 0000.0001) %MON g__dynstat_g_salt_max        =   6.3006056370046E-03
(PID.TID 0000.0001) %MON g__dynstat_g_salt_min        =  -1.1506960246103E-02
(PID.TID 0000.0001) %MON g__dynstat_g_salt_mean       =  -2.1746394674751E-09
(PID.TID 0000.0001) %MON g__dynstat_g_salt_sd         =   2.0255901262974E-05
(PID.TID 0000.0001) %MON g__dynstat_g_salt_del2       =   1.2687995487926E-06
(PID.TID 0000.0001) %MON g__dynstat_g_sst_max         =   8.1796732208571E-01
(PID.TID 0000.0001) %MON g__dynstat_g_sst_min         =  -6.1731867065558E-05
(PID.TID 0000.0001) %MON g__dynstat_g_sst_mean        =   1.6329966013750E-04
(PID.TID 0000.0001) %MON g__dynstat_g_sst_sd          =   1.0390920980671E-02
(PID.TID 0000.0001) %MON g__dynstat_g_sst_del2        =   4.8849749354369E-04
(PID.TID 0000.0001) %MON g__dynstat_g_sss_max         =   6.3006056370046E-03
(PID.TID 0000.0001) %MON g__dynstat_g_sss_min         =  -1.1506960246103E-02
(PID.TID 0000.0001) %MON g__dynstat_g_sss_mean        =   1.3149373091609E-08
(PID.TID 0000.0001) %MON g__dynstat_g_sss_sd          =   1.7482812531605E-04
(PID.TID 0000.0001) %MON g__dynstat_g_sss_del2        =   1.3659021270512E-05
(PID.TID 0000.0001) %MON g__extforcing_g_qnet_max     =   0.0000000000000E+00
(PID.TID 0000.0001) %MON g__extforcing_g_qnet_min     =   0.0000000000000E+00
(PID.TID 0000.0001) %MON g__extforcing_g_qnet_mean    =   0.0000000000000E+00
(PID.TID 0000.0001) %MON g__extforcing_g_qnet_sd      =   0.0000000000000E+00
(PID.TID 0000.0001) %MON g__extforcing_g_qnet_del2    =   0.0000000000000E+00
(PID.TID 0000.0001) %MON g__extforcing_g_empmr_max    =   0.0000000000000E+00
(PID.TID 0000.0001) %MON g__extforcing_g_empmr_min    =   0.0000000000000E+00
(PID.TID 0000.0001) %MON g__extforcing_g_empmr_mean   =   0.0000000000000E+00
(PID.TID 0000.0001) %MON g__extforcing_g_empmr_sd     =   0.0000000000000E+00
(PID.TID 0000.0001) %MON g__extforcing_g_empmr_del2   =   0.0000000000000E+00
(PID.TID 0000.0001) %MON g__extforcing_g_fu_max       =   0.0000000000000E+00
(PID.TID 0000.0001) %MON g__extforcing_g_fu_min       =   0.0000000000000E+00
(PID.TID 0000.0001) %MON g__extforcing_g_fu_mean      =   0.0000000000000E+00
(PID.TID 0000.0001) %MON g__extforcing_g_fu_sd        =   0.0000000000000E+00
(PID.TID 0000.0001) %MON g__extforcing_g_fu_del2      =   0.0000000000000E+00
(PID.TID 0000.0001) %MON g__extforcing_g_fv_max       =   0.0000000000000E+00
(PID.TID 0000.0001) %MON g__extforcing_g_fv_min       =   0.0000000000000E+00
(PID.TID 0000.0001) %MON g__extforcing_g_fv_mean      =   0.0000000000000E+00
(PID.TID 0000.0001) %MON g__extforcing_g_fv_sd        =   0.0000000000000E+00
(PID.TID 0000.0001) %MON g__extforcing_g_fv_del2      =   0.0000000000000E+00
(PID.TID 0000.0001) %MON g__g_vcfl_g_uvel_max         =   7.4245597590864E-05
(PID.TID 0000.0001) %MON g__g_vcfl_g_vvel_max         =   3.2523323537537E-05
(PID.TID 0000.0001) %MON g__g_vcfl_g_wvel_max         =   1.1637508436835E-04
(PID.TID 0000.0001) %MON g__g_vcfl_g_W_hf_max         =   2.7930020248405E-04
(PID.TID 0000.0001) // =======================================================
(PID.TID 0000.0001) // End MONITOR dynamic field statistics
(PID.TID 0000.0001) // =======================================================
 cg2d: Sum(rhs),rhsMax =   3.46745022605817E-12  1.95948648489139E-02
 cg2d: Sum(rhs),rhsMax =  -3.42434414157822E-13  7.19604411743552E+00
(PID.TID 0000.0001) // =======================================================
(PID.TID 0000.0001) // Begin MONITOR dynamic field statistics
(PID.TID 0000.0001) // =======================================================
(PID.TID 0000.0001) %MON g__time_tsnumber             =                    43
(PID.TID 0000.0001) %MON g__time_secondsf             =   1.8576000000000E+06
(PID.TID 0000.0001) %MON g__dynstat_g_eta_max         =   4.6549358359588E-03
(PID.TID 0000.0001) %MON g__dynstat_g_eta_min         =  -5.9424299677845E-05
(PID.TID 0000.0001) %MON g__dynstat_g_eta_mean        =  -4.3059328188854E-18
(PID.TID 0000.0001) %MON g__dynstat_g_eta_sd          =   5.9163236050692E-05
(PID.TID 0000.0001) %MON g__dynstat_g_eta_del2        =   2.9614156750909E-06
(PID.TID 0000.0001) %MON g__dynstat_g_uvel_max        =   1.2253522998264E-04
(PID.TID 0000.0001) %MON g__dynstat_g_uvel_min        =  -2.4991537900169E-04
(PID.TID 0000.0001) %MON g__dynstat_g_uvel_mean       =   3.7535216179437E-08
(PID.TID 0000.0001) %MON g__dynstat_g_uvel_sd         =   6.0254847023164E-07
(PID.TID 0000.0001) %MON g__dynstat_g_uvel_del2       =   6.0930909294210E-08
(PID.TID 0000.0001) %MON g__dynstat_g_vvel_max        =   3.1757487331779E-04
(PID.TID 0000.0001) %MON g__dynstat_g_vvel_min        =  -3.2268773089577E-04
(PID.TID 0000.0001) %MON g__dynstat_g_vvel_mean       =  -2.5233053958034E-08
(PID.TID 0000.0001) %MON g__dynstat_g_vvel_sd         =   8.9324968605093E-07
(PID.TID 0000.0001) %MON g__dynstat_g_vvel_del2       =   6.9497435792365E-08
(PID.TID 0000.0001) %MON g__dynstat_g_wvel_max        =   2.0459454039189E-07
(PID.TID 0000.0001) %MON g__dynstat_g_wvel_min        =  -1.3533739275710E-07
(PID.TID 0000.0001) %MON g__dynstat_g_wvel_mean       =   6.6415351864486E-27
(PID.TID 0000.0001) %MON g__dynstat_g_wvel_sd         =   8.6096916395920E-10
(PID.TID 0000.0001) %MON g__dynstat_g_wvel_del2       =   1.1535375143501E-10
(PID.TID 0000.0001) %MON g__dynstat_g_theta_max       =   8.1272938449843E-01
(PID.TID 0000.0001) %MON g__dynstat_g_theta_min       =  -1.2352532525861E-03
(PID.TID 0000.0001) %MON g__dynstat_g_theta_mean      =   3.1933010380829E-06
(PID.TID 0000.0001) %MON g__dynstat_g_theta_sd        =   1.2402767669924E-03
(PID.TID 0000.0001) %MON g__dynstat_g_theta_del2      =   4.9426386161038E-05
(PID.TID 0000.0001) %MON g__dynstat_g_salt_max        =   6.4105400082504E-03
(PID.TID 0000.0001) %MON g__dynstat_g_salt_min        =  -1.1706697722563E-02
(PID.TID 0000.0001) %MON g__dynstat_g_salt_mean       =  -2.0251953748269E-09
(PID.TID 0000.0001) %MON g__dynstat_g_salt_sd         =   2.0600968297327E-05
(PID.TID 0000.0001) %MON g__dynstat_g_salt_del2       =   1.2870988331812E-06
(PID.TID 0000.0001) %MON g__dynstat_g_sst_max         =   8.1272938449843E-01
(PID.TID 0000.0001) %MON g__dynstat_g_sst_min         =  -6.8022067434852E-05
(PID.TID 0000.0001) %MON g__dynstat_g_sst_mean        =   1.6298282280532E-04
(PID.TID 0000.0001) %MON g__dynstat_g_sst_sd          =   1.0328693640416E-02
(PID.TID 0000.0001) %MON g__dynstat_g_sst_del2        =   4.8454049965524E-04
(PID.TID 0000.0001) %MON g__dynstat_g_sss_max         =   6.4105400082504E-03
(PID.TID 0000.0001) %MON g__dynstat_g_sss_min         =  -1.1706697722563E-02
(PID.TID 0000.0001) %MON g__dynstat_g_sss_mean        =   2.0506081047596E-08
(PID.TID 0000.0001) %MON g__dynstat_g_sss_sd          =   1.7789470295160E-04
(PID.TID 0000.0001) %MON g__dynstat_g_sss_del2        =   1.3889837036523E-05
(PID.TID 0000.0001) %MON g__extforcing_g_qnet_max     =   0.0000000000000E+00
(PID.TID 0000.0001) %MON g__extforcing_g_qnet_min     =   0.0000000000000E+00
(PID.TID 0000.0001) %MON g__extforcing_g_qnet_mean    =   0.0000000000000E+00
(PID.TID 0000.0001) %MON g__extforcing_g_qnet_sd      =   0.0000000000000E+00
(PID.TID 0000.0001) %MON g__extforcing_g_qnet_del2    =   0.0000000000000E+00
(PID.TID 0000.0001) %MON g__extforcing_g_empmr_max    =   0.0000000000000E+00
(PID.TID 0000.0001) %MON g__extforcing_g_empmr_min    =   0.0000000000000E+00
(PID.TID 0000.0001) %MON g__extforcing_g_empmr_mean   =   0.0000000000000E+00
(PID.TID 0000.0001) %MON g__extforcing_g_empmr_sd     =   0.0000000000000E+00
(PID.TID 0000.0001) %MON g__extforcing_g_empmr_del2   =   0.0000000000000E+00
(PID.TID 0000.0001) %MON g__extforcing_g_fu_max       =   0.0000000000000E+00
(PID.TID 0000.0001) %MON g__extforcing_g_fu_min       =   0.0000000000000E+00
(PID.TID 0000.0001) %MON g__extforcing_g_fu_mean      =   0.0000000000000E+00
(PID.TID 0000.0001) %MON g__extforcing_g_fu_sd        =   0.0000000000000E+00
(PID.TID 0000.0001) %MON g__extforcing_g_fu_del2      =   0.0000000000000E+00
(PID.TID 0000.0001) %MON g__extforcing_g_fv_max       =   0.0000000000000E+00
(PID.TID 0000.0001) %MON g__extforcing_g_fv_min       =   0.0000000000000E+00
(PID.TID 0000.0001) %MON g__extforcing_g_fv_mean      =   0.0000000000000E+00
(PID.TID 0000.0001) %MON g__extforcing_g_fv_sd        =   0.0000000000000E+00
(PID.TID 0000.0001) %MON g__extforcing_g_fv_del2      =   0.0000000000000E+00
(PID.TID 0000.0001) %MON g__g_vcfl_g_uvel_max         =   8.8076867947227E-05
(PID.TID 0000.0001) %MON g__g_vcfl_g_vvel_max         =   3.1346525412024E-05
(PID.TID 0000.0001) %MON g__g_vcfl_g_wvel_max         =   1.3237396549749E-04
(PID.TID 0000.0001) %MON g__g_vcfl_g_W_hf_max         =   3.1769751719397E-04
(PID.TID 0000.0001) // =======================================================
(PID.TID 0000.0001) // End MONITOR dynamic field statistics
(PID.TID 0000.0001) // =======================================================
 cg2d: Sum(rhs),rhsMax =   3.45325689991569E-12  1.96256230675565E-02
 cg2d: Sum(rhs),rhsMax =  -5.94906068851486E-13  7.21623310024423E+00
(PID.TID 0000.0001) // =======================================================
(PID.TID 0000.0001) // Begin MONITOR dynamic field statistics
(PID.TID 0000.0001) // =======================================================
(PID.TID 0000.0001) %MON g__time_tsnumber             =                    44
(PID.TID 0000.0001) %MON g__time_secondsf             =   1.9008000000000E+06
(PID.TID 0000.0001) %MON g__dynstat_g_eta_max         =   4.6674649139110E-03
(PID.TID 0000.0001) %MON g__dynstat_g_eta_min         =  -5.9395540604544E-05
(PID.TID 0000.0001) %MON g__dynstat_g_eta_mean        =  -4.2604869766372E-18
(PID.TID 0000.0001) %MON g__dynstat_g_eta_sd          =   5.9355349818091E-05
(PID.TID 0000.0001) %MON g__dynstat_g_eta_del2        =   2.9642335866685E-06
(PID.TID 0000.0001) %MON g__dynstat_g_uvel_max        =   1.6134247624943E-04
(PID.TID 0000.0001) %MON g__dynstat_g_uvel_min        =  -2.8228780000980E-04
(PID.TID 0000.0001) %MON g__dynstat_g_uvel_mean       =   4.0078683853807E-08
(PID.TID 0000.0001) %MON g__dynstat_g_uvel_sd         =   6.8331071281340E-07
(PID.TID 0000.0001) %MON g__dynstat_g_uvel_del2       =   6.3497766237026E-08
(PID.TID 0000.0001) %MON g__dynstat_g_vvel_max        =   3.3942866801898E-04
(PID.TID 0000.0001) %MON g__dynstat_g_vvel_min        =  -3.1063684033550E-04
(PID.TID 0000.0001) %MON g__dynstat_g_vvel_mean       =  -2.3924801290535E-08
(PID.TID 0000.0001) %MON g__dynstat_g_vvel_sd         =   9.0176447789256E-07
(PID.TID 0000.0001) %MON g__dynstat_g_vvel_del2       =   7.0388563449859E-08
(PID.TID 0000.0001) %MON g__dynstat_g_wvel_max        =   2.2906266515573E-07
(PID.TID 0000.0001) %MON g__dynstat_g_wvel_min        =  -1.5590963299332E-07
(PID.TID 0000.0001) %MON g__dynstat_g_wvel_mean       =   5.0967245405225E-28
(PID.TID 0000.0001) %MON g__dynstat_g_wvel_sd         =   9.3628745143685E-10
(PID.TID 0000.0001) %MON g__dynstat_g_wvel_del2       =   1.1898061917206E-10
(PID.TID 0000.0001) %MON g__dynstat_g_theta_max       =   8.0626129436108E-01
(PID.TID 0000.0001) %MON g__dynstat_g_theta_min       =  -1.2161307941483E-03
(PID.TID 0000.0001) %MON g__dynstat_g_theta_mean      =   3.2028087300678E-06
(PID.TID 0000.0001) %MON g__dynstat_g_theta_sd        =   1.2328570184791E-03
(PID.TID 0000.0001) %MON g__dynstat_g_theta_del2      =   4.9134725245709E-05
(PID.TID 0000.0001) %MON g__dynstat_g_salt_max        =   6.5084195020221E-03
(PID.TID 0000.0001) %MON g__dynstat_g_salt_min        =  -1.1873539613269E-02
(PID.TID 0000.0001) %MON g__dynstat_g_salt_mean       =  -1.8099752975252E-09
(PID.TID 0000.0001) %MON g__dynstat_g_salt_sd         =   2.0896396335786E-05
(PID.TID 0000.0001) %MON g__dynstat_g_salt_del2       =   1.3042223211505E-06
(PID.TID 0000.0001) %MON g__dynstat_g_sst_max         =   8.0626129436108E-01
(PID.TID 0000.0001) %MON g__dynstat_g_sst_min         =  -7.3761619783854E-05
(PID.TID 0000.0001) %MON g__dynstat_g_sst_mean        =   1.6237307783499E-04
(PID.TID 0000.0001) %MON g__dynstat_g_sst_sd          =   1.0250764653844E-02
(PID.TID 0000.0001) %MON g__dynstat_g_sst_del2        =   4.7989959742066E-04
(PID.TID 0000.0001) %MON g__dynstat_g_sss_max         =   6.5084195020221E-03
(PID.TID 0000.0001) %MON g__dynstat_g_sss_min         =  -1.1873539613269E-02
(PID.TID 0000.0001) %MON g__dynstat_g_sss_mean        =   2.9215268258089E-08
(PID.TID 0000.0001) %MON g__dynstat_g_sss_sd          =   1.8047983360160E-04
(PID.TID 0000.0001) %MON g__dynstat_g_sss_del2        =   1.4086907714332E-05
(PID.TID 0000.0001) %MON g__extforcing_g_qnet_max     =   0.0000000000000E+00
(PID.TID 0000.0001) %MON g__extforcing_g_qnet_min     =   0.0000000000000E+00
(PID.TID 0000.0001) %MON g__extforcing_g_qnet_mean    =   0.0000000000000E+00
(PID.TID 0000.0001) %MON g__extforcing_g_qnet_sd      =   0.0000000000000E+00
(PID.TID 0000.0001) %MON g__extforcing_g_qnet_del2    =   0.0000000000000E+00
(PID.TID 0000.0001) %MON g__extforcing_g_empmr_max    =   0.0000000000000E+00
(PID.TID 0000.0001) %MON g__extforcing_g_empmr_min    =   0.0000000000000E+00
(PID.TID 0000.0001) %MON g__extforcing_g_empmr_mean   =   0.0000000000000E+00
(PID.TID 0000.0001) %MON g__extforcing_g_empmr_sd     =   0.0000000000000E+00
(PID.TID 0000.0001) %MON g__extforcing_g_empmr_del2   =   0.0000000000000E+00
(PID.TID 0000.0001) %MON g__extforcing_g_fu_max       =   0.0000000000000E+00
(PID.TID 0000.0001) %MON g__extforcing_g_fu_min       =   0.0000000000000E+00
(PID.TID 0000.0001) %MON g__extforcing_g_fu_mean      =   0.0000000000000E+00
(PID.TID 0000.0001) %MON g__extforcing_g_fu_sd        =   0.0000000000000E+00
(PID.TID 0000.0001) %MON g__extforcing_g_fu_del2      =   0.0000000000000E+00
(PID.TID 0000.0001) %MON g__extforcing_g_fv_max       =   0.0000000000000E+00
(PID.TID 0000.0001) %MON g__extforcing_g_fv_min       =   0.0000000000000E+00
(PID.TID 0000.0001) %MON g__extforcing_g_fv_mean      =   0.0000000000000E+00
(PID.TID 0000.0001) %MON g__extforcing_g_fv_sd        =   0.0000000000000E+00
(PID.TID 0000.0001) %MON g__extforcing_g_fv_del2      =   0.0000000000000E+00
(PID.TID 0000.0001) %MON g__g_vcfl_g_uvel_max         =   9.9485775480862E-05
(PID.TID 0000.0001) %MON g__g_vcfl_g_vvel_max         =   3.2972773207368E-05
(PID.TID 0000.0001) %MON g__g_vcfl_g_wvel_max         =   1.4361031780434E-04
(PID.TID 0000.0001) %MON g__g_vcfl_g_W_hf_max         =   3.4466476273041E-04
(PID.TID 0000.0001) // =======================================================
(PID.TID 0000.0001) // End MONITOR dynamic field statistics
(PID.TID 0000.0001) // =======================================================
 cg2d: Sum(rhs),rhsMax =   3.42448464246459E-12  1.95795137779566E-02
 cg2d: Sum(rhs),rhsMax =  -2.28234098287317E-13  7.36407436363191E+00
(PID.TID 0000.0001) // =======================================================
(PID.TID 0000.0001) // Begin MONITOR dynamic field statistics
(PID.TID 0000.0001) // =======================================================
(PID.TID 0000.0001) %MON g__time_tsnumber             =                    45
(PID.TID 0000.0001) %MON g__time_secondsf             =   1.9440000000000E+06
(PID.TID 0000.0001) %MON g__dynstat_g_eta_max         =   4.6592134400097E-03
(PID.TID 0000.0001) %MON g__dynstat_g_eta_min         =  -5.5235962866295E-05
(PID.TID 0000.0001) %MON g__dynstat_g_eta_mean        =  -4.1319271605920E-18
(PID.TID 0000.0001) %MON g__dynstat_g_eta_sd          =   5.9269716438523E-05
(PID.TID 0000.0001) %MON g__dynstat_g_eta_del2        =   2.9566889022377E-06
(PID.TID 0000.0001) %MON g__dynstat_g_uvel_max        =   1.9207134396776E-04
(PID.TID 0000.0001) %MON g__dynstat_g_uvel_min        =  -3.0709200639330E-04
(PID.TID 0000.0001) %MON g__dynstat_g_uvel_mean       =   4.2545188395578E-08
(PID.TID 0000.0001) %MON g__dynstat_g_uvel_sd         =   7.5168990313330E-07
(PID.TID 0000.0001) %MON g__dynstat_g_uvel_del2       =   6.6398961263477E-08
(PID.TID 0000.0001) %MON g__dynstat_g_vvel_max        =   3.6172479558056E-04
(PID.TID 0000.0001) %MON g__dynstat_g_vvel_min        =  -2.9903757958734E-04
(PID.TID 0000.0001) %MON g__dynstat_g_vvel_mean       =  -2.1901206134809E-08
(PID.TID 0000.0001) %MON g__dynstat_g_vvel_sd         =   9.1453970873956E-07
(PID.TID 0000.0001) %MON g__dynstat_g_vvel_del2       =   7.1099003933460E-08
(PID.TID 0000.0001) %MON g__dynstat_g_wvel_max        =   2.4555118879991E-07
(PID.TID 0000.0001) %MON g__dynstat_g_wvel_min        =  -1.7219909181447E-07
(PID.TID 0000.0001) %MON g__dynstat_g_wvel_mean       =  -8.7681161580387E-28
(PID.TID 0000.0001) %MON g__dynstat_g_wvel_sd         =   9.9607508657726E-10
(PID.TID 0000.0001) %MON g__dynstat_g_wvel_del2       =   1.2273664400968E-10
(PID.TID 0000.0001) %MON g__dynstat_g_theta_max       =   7.9861357584877E-01
(PID.TID 0000.0001) %MON g__dynstat_g_theta_min       =  -1.2061695632450E-03
(PID.TID 0000.0001) %MON g__dynstat_g_theta_mean      =   3.2039095255979E-06
(PID.TID 0000.0001) %MON g__dynstat_g_theta_sd        =   1.2232792267376E-03
(PID.TID 0000.0001) %MON g__dynstat_g_theta_del2      =   4.8737482288516E-05
(PID.TID 0000.0001) %MON g__dynstat_g_salt_max        =   6.5949756452069E-03
(PID.TID 0000.0001) %MON g__dynstat_g_salt_min        =  -1.2007679155788E-02
(PID.TID 0000.0001) %MON g__dynstat_g_salt_mean       =  -1.5467988142248E-09
(PID.TID 0000.0001) %MON g__dynstat_g_salt_sd         =   2.1142106320618E-05
(PID.TID 0000.0001) %MON g__dynstat_g_salt_del2       =   1.3202206070487E-06
(PID.TID 0000.0001) %MON g__dynstat_g_sst_max         =   7.9861357584877E-01
(PID.TID 0000.0001) %MON g__dynstat_g_sst_min         =  -7.8648485663104E-05
(PID.TID 0000.0001) %MON g__dynstat_g_sst_mean        =   1.6147793317131E-04
(PID.TID 0000.0001) %MON g__dynstat_g_sst_sd          =   1.0157767910846E-02
(PID.TID 0000.0001) %MON g__dynstat_g_sst_del2        =   4.7460598871450E-04
(PID.TID 0000.0001) %MON g__dynstat_g_sss_max         =   6.5949756452069E-03
(PID.TID 0000.0001) %MON g__dynstat_g_sss_min         =  -1.2007679155788E-02
(PID.TID 0000.0001) %MON g__dynstat_g_sss_mean        =   3.8596829369823E-08
(PID.TID 0000.0001) %MON g__dynstat_g_sss_sd          =   1.8258738171069E-04
(PID.TID 0000.0001) %MON g__dynstat_g_sss_del2        =   1.4251114149066E-05
(PID.TID 0000.0001) %MON g__extforcing_g_qnet_max     =   0.0000000000000E+00
(PID.TID 0000.0001) %MON g__extforcing_g_qnet_min     =   0.0000000000000E+00
(PID.TID 0000.0001) %MON g__extforcing_g_qnet_mean    =   0.0000000000000E+00
(PID.TID 0000.0001) %MON g__extforcing_g_qnet_sd      =   0.0000000000000E+00
(PID.TID 0000.0001) %MON g__extforcing_g_qnet_del2    =   0.0000000000000E+00
(PID.TID 0000.0001) %MON g__extforcing_g_empmr_max    =   0.0000000000000E+00
(PID.TID 0000.0001) %MON g__extforcing_g_empmr_min    =   0.0000000000000E+00
(PID.TID 0000.0001) %MON g__extforcing_g_empmr_mean   =   0.0000000000000E+00
(PID.TID 0000.0001) %MON g__extforcing_g_empmr_sd     =   0.0000000000000E+00
(PID.TID 0000.0001) %MON g__extforcing_g_empmr_del2   =   0.0000000000000E+00
(PID.TID 0000.0001) %MON g__extforcing_g_fu_max       =   0.0000000000000E+00
(PID.TID 0000.0001) %MON g__extforcing_g_fu_min       =   0.0000000000000E+00
(PID.TID 0000.0001) %MON g__extforcing_g_fu_mean      =   0.0000000000000E+00
(PID.TID 0000.0001) %MON g__extforcing_g_fu_sd        =   0.0000000000000E+00
(PID.TID 0000.0001) %MON g__extforcing_g_fu_del2      =   0.0000000000000E+00
(PID.TID 0000.0001) %MON g__extforcing_g_fv_max       =   0.0000000000000E+00
(PID.TID 0000.0001) %MON g__extforcing_g_fv_min       =   0.0000000000000E+00
(PID.TID 0000.0001) %MON g__extforcing_g_fv_mean      =   0.0000000000000E+00
(PID.TID 0000.0001) %MON g__extforcing_g_fv_sd        =   0.0000000000000E+00
(PID.TID 0000.0001) %MON g__extforcing_g_fv_del2      =   0.0000000000000E+00
(PID.TID 0000.0001) %MON g__g_vcfl_g_uvel_max         =   1.0822744163563E-04
(PID.TID 0000.0001) %MON g__g_vcfl_g_vvel_max         =   3.5138663206528E-05
(PID.TID 0000.0001) %MON g__g_vcfl_g_wvel_max         =   1.5009136310429E-04
(PID.TID 0000.0001) %MON g__g_vcfl_g_W_hf_max         =   3.6021927145030E-04
(PID.TID 0000.0001) // =======================================================
(PID.TID 0000.0001) // End MONITOR dynamic field statistics
(PID.TID 0000.0001) // =======================================================
 cg2d: Sum(rhs),rhsMax =   3.34208745040055E-12  1.94621640811290E-02
 cg2d: Sum(rhs),rhsMax =   4.72635819370737E-13  7.63411997016478E+00
(PID.TID 0000.0001) // =======================================================
(PID.TID 0000.0001) // Begin MONITOR dynamic field statistics
(PID.TID 0000.0001) // =======================================================
(PID.TID 0000.0001) %MON g__time_tsnumber             =                    46
(PID.TID 0000.0001) %MON g__time_secondsf             =   1.9872000000000E+06
(PID.TID 0000.0001) %MON g__dynstat_g_eta_max         =   4.6319456927827E-03
(PID.TID 0000.0001) %MON g__dynstat_g_eta_min         =  -4.7346777805659E-05
(PID.TID 0000.0001) %MON g__dynstat_g_eta_mean        =  -4.0611610374900E-18
(PID.TID 0000.0001) %MON g__dynstat_g_eta_sd          =   5.8930755091087E-05
(PID.TID 0000.0001) %MON g__dynstat_g_eta_del2        =   2.9382165611873E-06
(PID.TID 0000.0001) %MON g__dynstat_g_uvel_max        =   2.1261417747831E-04
(PID.TID 0000.0001) %MON g__dynstat_g_uvel_min        =  -3.2391668294363E-04
(PID.TID 0000.0001) %MON g__dynstat_g_uvel_mean       =   4.4806233928249E-08
(PID.TID 0000.0001) %MON g__dynstat_g_uvel_sd         =   8.0291159897114E-07
(PID.TID 0000.0001) %MON g__dynstat_g_uvel_del2       =   6.8625016971089E-08
(PID.TID 0000.0001) %MON g__dynstat_g_vvel_max        =   3.8355234591663E-04
(PID.TID 0000.0001) %MON g__dynstat_g_vvel_min        =  -2.8821108870627E-04
(PID.TID 0000.0001) %MON g__dynstat_g_vvel_mean       =  -1.9214243529106E-08
(PID.TID 0000.0001) %MON g__dynstat_g_vvel_sd         =   9.3043875778430E-07
(PID.TID 0000.0001) %MON g__dynstat_g_vvel_del2       =   7.1502980431423E-08
(PID.TID 0000.0001) %MON g__dynstat_g_wvel_max        =   2.5399131228438E-07
(PID.TID 0000.0001) %MON g__dynstat_g_wvel_min        =  -1.8359575509912E-07
(PID.TID 0000.0001) %MON g__dynstat_g_wvel_mean       =  -6.3720431420741E-27
(PID.TID 0000.0001) %MON g__dynstat_g_wvel_sd         =   1.0336257936989E-09
(PID.TID 0000.0001) %MON g__dynstat_g_wvel_del2       =   1.2521591624363E-10
(PID.TID 0000.0001) %MON g__dynstat_g_theta_max       =   7.8988231438401E-01
(PID.TID 0000.0001) %MON g__dynstat_g_theta_min       =  -1.2063148271400E-03
(PID.TID 0000.0001) %MON g__dynstat_g_theta_mean      =   3.1969569448099E-06
(PID.TID 0000.0001) %MON g__dynstat_g_theta_sd        =   1.2116960217651E-03
(PID.TID 0000.0001) %MON g__dynstat_g_theta_del2      =   4.8246558430225E-05
(PID.TID 0000.0001) %MON g__dynstat_g_salt_max        =   6.6714144858050E-03
(PID.TID 0000.0001) %MON g__dynstat_g_salt_min        =  -1.2110450205671E-02
(PID.TID 0000.0001) %MON g__dynstat_g_salt_mean       =  -1.2511923357954E-09
(PID.TID 0000.0001) %MON g__dynstat_g_salt_sd         =   2.1340049597240E-05
(PID.TID 0000.0001) %MON g__dynstat_g_salt_del2       =   1.3350568420767E-06
(PID.TID 0000.0001) %MON g__dynstat_g_sst_max         =   7.8988231438401E-01
(PID.TID 0000.0001) %MON g__dynstat_g_sst_min         =  -8.2477790663654E-05
(PID.TID 0000.0001) %MON g__dynstat_g_sst_mean        =   1.6031916054663E-04
(PID.TID 0000.0001) %MON g__dynstat_g_sst_sd          =   1.0050924446932E-02
(PID.TID 0000.0001) %MON g__dynstat_g_sst_del2        =   4.6871550076169E-04
(PID.TID 0000.0001) %MON g__dynstat_g_sss_max         =   6.6714144858050E-03
(PID.TID 0000.0001) %MON g__dynstat_g_sss_min         =  -1.2110450205671E-02
(PID.TID 0000.0001) %MON g__dynstat_g_sss_mean        =   4.8464386262933E-08
(PID.TID 0000.0001) %MON g__dynstat_g_sss_sd          =   1.8423852241371E-04
(PID.TID 0000.0001) %MON g__dynstat_g_sss_del2        =   1.4383664372040E-05
(PID.TID 0000.0001) %MON g__extforcing_g_qnet_max     =   0.0000000000000E+00
(PID.TID 0000.0001) %MON g__extforcing_g_qnet_min     =   0.0000000000000E+00
(PID.TID 0000.0001) %MON g__extforcing_g_qnet_mean    =   0.0000000000000E+00
(PID.TID 0000.0001) %MON g__extforcing_g_qnet_sd      =   0.0000000000000E+00
(PID.TID 0000.0001) %MON g__extforcing_g_qnet_del2    =   0.0000000000000E+00
(PID.TID 0000.0001) %MON g__extforcing_g_empmr_max    =   0.0000000000000E+00
(PID.TID 0000.0001) %MON g__extforcing_g_empmr_min    =   0.0000000000000E+00
(PID.TID 0000.0001) %MON g__extforcing_g_empmr_mean   =   0.0000000000000E+00
(PID.TID 0000.0001) %MON g__extforcing_g_empmr_sd     =   0.0000000000000E+00
(PID.TID 0000.0001) %MON g__extforcing_g_empmr_del2   =   0.0000000000000E+00
(PID.TID 0000.0001) %MON g__extforcing_g_fu_max       =   0.0000000000000E+00
(PID.TID 0000.0001) %MON g__extforcing_g_fu_min       =   0.0000000000000E+00
(PID.TID 0000.0001) %MON g__extforcing_g_fu_mean      =   0.0000000000000E+00
(PID.TID 0000.0001) %MON g__extforcing_g_fu_sd        =   0.0000000000000E+00
(PID.TID 0000.0001) %MON g__extforcing_g_fu_del2      =   0.0000000000000E+00
(PID.TID 0000.0001) %MON g__extforcing_g_fv_max       =   0.0000000000000E+00
(PID.TID 0000.0001) %MON g__extforcing_g_fv_min       =   0.0000000000000E+00
(PID.TID 0000.0001) %MON g__extforcing_g_fv_mean      =   0.0000000000000E+00
(PID.TID 0000.0001) %MON g__extforcing_g_fv_sd        =   0.0000000000000E+00
(PID.TID 0000.0001) %MON g__extforcing_g_fv_del2      =   0.0000000000000E+00
(PID.TID 0000.0001) %MON g__g_vcfl_g_uvel_max         =   1.1415690792417E-04
(PID.TID 0000.0001) %MON g__g_vcfl_g_vvel_max         =   3.7259034685767E-05
(PID.TID 0000.0001) %MON g__g_vcfl_g_wvel_max         =   1.5197885127468E-04
(PID.TID 0000.0001) %MON g__g_vcfl_g_W_hf_max         =   3.6474924305923E-04
(PID.TID 0000.0001) // =======================================================
(PID.TID 0000.0001) // End MONITOR dynamic field statistics
(PID.TID 0000.0001) // =======================================================
 cg2d: Sum(rhs),rhsMax =   3.31419078449905E-12  1.92822164715680E-02
 cg2d: Sum(rhs),rhsMax =   2.19706197679415E-13  7.83757970972503E+00
(PID.TID 0000.0001) // =======================================================
(PID.TID 0000.0001) // Begin MONITOR dynamic field statistics
(PID.TID 0000.0001) // =======================================================
(PID.TID 0000.0001) %MON g__time_tsnumber             =                    47
(PID.TID 0000.0001) %MON g__time_secondsf             =   2.0304000000000E+06
(PID.TID 0000.0001) %MON g__dynstat_g_eta_max         =   4.5882440200398E-03
(PID.TID 0000.0001) %MON g__dynstat_g_eta_min         =  -3.6534292579237E-05
(PID.TID 0000.0001) %MON g__dynstat_g_eta_mean        =  -4.0359252786814E-18
(PID.TID 0000.0001) %MON g__dynstat_g_eta_sd          =   5.8374615560714E-05
(PID.TID 0000.0001) %MON g__dynstat_g_eta_del2        =   2.9125676584175E-06
(PID.TID 0000.0001) %MON g__dynstat_g_uvel_max        =   2.2269100630700E-04
(PID.TID 0000.0001) %MON g__dynstat_g_uvel_min        =  -3.3263960649255E-04
(PID.TID 0000.0001) %MON g__dynstat_g_uvel_mean       =   4.6743639399537E-08
(PID.TID 0000.0001) %MON g__dynstat_g_uvel_sd         =   8.3447548873027E-07
(PID.TID 0000.0001) %MON g__dynstat_g_uvel_del2       =   6.9823211021272E-08
(PID.TID 0000.0001) %MON g__dynstat_g_vvel_max        =   4.0406118551463E-04
(PID.TID 0000.0001) %MON g__dynstat_g_vvel_min        =  -2.7840186490623E-04
(PID.TID 0000.0001) %MON g__dynstat_g_vvel_mean       =  -1.5939292573007E-08
(PID.TID 0000.0001) %MON g__dynstat_g_vvel_sd         =   9.4785105018513E-07
(PID.TID 0000.0001) %MON g__dynstat_g_vvel_del2       =   7.1781218435510E-08
(PID.TID 0000.0001) %MON g__dynstat_g_wvel_max        =   2.5460675527797E-07
(PID.TID 0000.0001) %MON g__dynstat_g_wvel_min        =  -1.8983278530451E-07
(PID.TID 0000.0001) %MON g__dynstat_g_wvel_mean       =  -2.0464770863224E-27
(PID.TID 0000.0001) %MON g__dynstat_g_wvel_sd         =   1.0456515140684E-09
(PID.TID 0000.0001) %MON g__dynstat_g_wvel_del2       =   1.2598991048443E-10
(PID.TID 0000.0001) %MON g__dynstat_g_theta_max       =   7.8021244197888E-01
(PID.TID 0000.0001) %MON g__dynstat_g_theta_min       =  -1.2169519072103E-03
(PID.TID 0000.0001) %MON g__dynstat_g_theta_mean      =   3.1826984334319E-06
(PID.TID 0000.0001) %MON g__dynstat_g_theta_sd        =   1.1983559607840E-03
(PID.TID 0000.0001) %MON g__dynstat_g_theta_del2      =   4.7670860805724E-05
(PID.TID 0000.0001) %MON g__dynstat_g_salt_max        =   6.7393255906450E-03
(PID.TID 0000.0001) %MON g__dynstat_g_salt_min        =  -1.2184498644995E-02
(PID.TID 0000.0001) %MON g__dynstat_g_salt_mean       =  -9.3558639650219E-10
(PID.TID 0000.0001) %MON g__dynstat_g_salt_sd         =   2.1494350840936E-05
(PID.TID 0000.0001) %MON g__dynstat_g_salt_del2       =   1.3487440184181E-06
(PID.TID 0000.0001) %MON g__dynstat_g_sst_max         =   7.8021244197888E-01
(PID.TID 0000.0001) %MON g__dynstat_g_sst_min         =  -8.5149850079104E-05
(PID.TID 0000.0001) %MON g__dynstat_g_sst_mean        =   1.5893051939986E-04
(PID.TID 0000.0001) %MON g__dynstat_g_sst_sd          =   9.9320838438187E-03
(PID.TID 0000.0001) %MON g__dynstat_g_sst_del2        =   4.6231002485825E-04
(PID.TID 0000.0001) %MON g__dynstat_g_sss_max         =   6.7393255906450E-03
(PID.TID 0000.0001) %MON g__dynstat_g_sss_min         =  -1.2184498644995E-02
(PID.TID 0000.0001) %MON g__dynstat_g_sss_mean        =   5.8694872985701E-08
(PID.TID 0000.0001) %MON g__dynstat_g_sss_sd          =   1.8547368799340E-04
(PID.TID 0000.0001) %MON g__dynstat_g_sss_del2        =   1.4487499697901E-05
(PID.TID 0000.0001) %MON g__extforcing_g_qnet_max     =   0.0000000000000E+00
(PID.TID 0000.0001) %MON g__extforcing_g_qnet_min     =   0.0000000000000E+00
(PID.TID 0000.0001) %MON g__extforcing_g_qnet_mean    =   0.0000000000000E+00
(PID.TID 0000.0001) %MON g__extforcing_g_qnet_sd      =   0.0000000000000E+00
(PID.TID 0000.0001) %MON g__extforcing_g_qnet_del2    =   0.0000000000000E+00
(PID.TID 0000.0001) %MON g__extforcing_g_empmr_max    =   0.0000000000000E+00
(PID.TID 0000.0001) %MON g__extforcing_g_empmr_min    =   0.0000000000000E+00
(PID.TID 0000.0001) %MON g__extforcing_g_empmr_mean   =   0.0000000000000E+00
(PID.TID 0000.0001) %MON g__extforcing_g_empmr_sd     =   0.0000000000000E+00
(PID.TID 0000.0001) %MON g__extforcing_g_empmr_del2   =   0.0000000000000E+00
(PID.TID 0000.0001) %MON g__extforcing_g_fu_max       =   0.0000000000000E+00
(PID.TID 0000.0001) %MON g__extforcing_g_fu_min       =   0.0000000000000E+00
(PID.TID 0000.0001) %MON g__extforcing_g_fu_mean      =   0.0000000000000E+00
(PID.TID 0000.0001) %MON g__extforcing_g_fu_sd        =   0.0000000000000E+00
(PID.TID 0000.0001) %MON g__extforcing_g_fu_del2      =   0.0000000000000E+00
(PID.TID 0000.0001) %MON g__extforcing_g_fv_max       =   0.0000000000000E+00
(PID.TID 0000.0001) %MON g__extforcing_g_fv_min       =   0.0000000000000E+00
(PID.TID 0000.0001) %MON g__extforcing_g_fv_mean      =   0.0000000000000E+00
(PID.TID 0000.0001) %MON g__extforcing_g_fv_sd        =   0.0000000000000E+00
(PID.TID 0000.0001) %MON g__extforcing_g_fv_del2      =   0.0000000000000E+00
(PID.TID 0000.0001) %MON g__g_vcfl_g_uvel_max         =   1.1723109963098E-04
(PID.TID 0000.0001) %MON g__g_vcfl_g_vvel_max         =   3.9251303991592E-05
(PID.TID 0000.0001) %MON g__g_vcfl_g_wvel_max         =   1.4958139257400E-04
(PID.TID 0000.0001) %MON g__g_vcfl_g_W_hf_max         =   3.5899534217759E-04
(PID.TID 0000.0001) // =======================================================
(PID.TID 0000.0001) // End MONITOR dynamic field statistics
(PID.TID 0000.0001) // =======================================================
 cg2d: Sum(rhs),rhsMax =   3.33419904669874E-12  1.90509797491333E-02
 cg2d: Sum(rhs),rhsMax =   3.14401282786037E-14  7.97661649749666E+00
(PID.TID 0000.0001) // =======================================================
(PID.TID 0000.0001) // Begin MONITOR dynamic field statistics
(PID.TID 0000.0001) // =======================================================
(PID.TID 0000.0001) %MON g__time_tsnumber             =                    48
(PID.TID 0000.0001) %MON g__time_secondsf             =   2.0736000000000E+06
(PID.TID 0000.0001) %MON g__dynstat_g_eta_max         =   4.5313469908153E-03
(PID.TID 0000.0001) %MON g__dynstat_g_eta_min         =  -2.4439944304267E-05
(PID.TID 0000.0001) %MON g__dynstat_g_eta_mean        =  -4.0324384481696E-18
(PID.TID 0000.0001) %MON g__dynstat_g_eta_sd          =   5.7646193875608E-05
(PID.TID 0000.0001) %MON g__dynstat_g_eta_del2        =   2.8834230496351E-06
(PID.TID 0000.0001) %MON g__dynstat_g_uvel_max        =   2.2400671536953E-04
(PID.TID 0000.0001) %MON g__dynstat_g_uvel_min        =  -3.3343429936993E-04
(PID.TID 0000.0001) %MON g__dynstat_g_uvel_mean       =   4.8254596881356E-08
(PID.TID 0000.0001) %MON g__dynstat_g_uvel_sd         =   8.4565376678148E-07
(PID.TID 0000.0001) %MON g__dynstat_g_uvel_del2       =   6.9956331742754E-08
(PID.TID 0000.0001) %MON g__dynstat_g_vvel_max        =   4.2249435741920E-04
(PID.TID 0000.0001) %MON g__dynstat_g_vvel_min        =  -2.6977800288568E-04
(PID.TID 0000.0001) %MON g__dynstat_g_vvel_mean       =  -1.2172427501232E-08
(PID.TID 0000.0001) %MON g__dynstat_g_vvel_sd         =   9.6498590509723E-07
(PID.TID 0000.0001) %MON g__dynstat_g_vvel_del2       =   7.2002667507522E-08
(PID.TID 0000.0001) %MON g__dynstat_g_wvel_max        =   2.4790274935501E-07
(PID.TID 0000.0001) %MON g__dynstat_g_wvel_min        =  -1.9097756893324E-07
(PID.TID 0000.0001) %MON g__dynstat_g_wvel_mean       =  -5.3985906291886E-28
(PID.TID 0000.0001) %MON g__dynstat_g_wvel_sd         =   1.0321210266412E-09
(PID.TID 0000.0001) %MON g__dynstat_g_wvel_del2       =   1.2564559648689E-10
(PID.TID 0000.0001) %MON g__dynstat_g_theta_max       =   7.6979627095438E-01
(PID.TID 0000.0001) %MON g__dynstat_g_theta_min       =  -1.2376872624594E-03
(PID.TID 0000.0001) %MON g__dynstat_g_theta_mean      =   3.1622700993063E-06
(PID.TID 0000.0001) %MON g__dynstat_g_theta_sd        =   1.1836007325858E-03
(PID.TID 0000.0001) %MON g__dynstat_g_theta_del2      =   4.7027271557431E-05
(PID.TID 0000.0001) %MON g__dynstat_g_salt_max        =   6.8005749279568E-03
(PID.TID 0000.0001) %MON g__dynstat_g_salt_min        =  -1.2233843845582E-02
(PID.TID 0000.0001) %MON g__dynstat_g_salt_mean       =  -6.0890904760625E-10
(PID.TID 0000.0001) %MON g__dynstat_g_salt_sd         =   2.1611260804327E-05
(PID.TID 0000.0001) %MON g__dynstat_g_salt_del2       =   1.3613553543624E-06
(PID.TID 0000.0001) %MON g__dynstat_g_sst_max         =   7.6979627095438E-01
(PID.TID 0000.0001) %MON g__dynstat_g_sst_min         =  -8.6663379526635E-05
(PID.TID 0000.0001) %MON g__dynstat_g_sst_mean        =   1.5735258715283E-04
(PID.TID 0000.0001) %MON g__dynstat_g_sst_sd          =   9.8037039313994E-03
(PID.TID 0000.0001) %MON g__dynstat_g_sst_del2        =   4.5550284131270E-04
(PID.TID 0000.0001) %MON g__dynstat_g_sss_max         =   6.8005749279568E-03
(PID.TID 0000.0001) %MON g__dynstat_g_sss_min         =  -1.2233843845582E-02
(PID.TID 0000.0001) %MON g__dynstat_g_sss_mean        =   6.8659740003459E-08
(PID.TID 0000.0001) %MON g__dynstat_g_sss_sd          =   1.8635295354834E-04
(PID.TID 0000.0001) %MON g__dynstat_g_sss_del2        =   1.4567056575130E-05
(PID.TID 0000.0001) %MON g__extforcing_g_qnet_max     =   0.0000000000000E+00
(PID.TID 0000.0001) %MON g__extforcing_g_qnet_min     =   0.0000000000000E+00
(PID.TID 0000.0001) %MON g__extforcing_g_qnet_mean    =   0.0000000000000E+00
(PID.TID 0000.0001) %MON g__extforcing_g_qnet_sd      =   0.0000000000000E+00
(PID.TID 0000.0001) %MON g__extforcing_g_qnet_del2    =   0.0000000000000E+00
(PID.TID 0000.0001) %MON g__extforcing_g_empmr_max    =   0.0000000000000E+00
(PID.TID 0000.0001) %MON g__extforcing_g_empmr_min    =   0.0000000000000E+00
(PID.TID 0000.0001) %MON g__extforcing_g_empmr_mean   =   0.0000000000000E+00
(PID.TID 0000.0001) %MON g__extforcing_g_empmr_sd     =   0.0000000000000E+00
(PID.TID 0000.0001) %MON g__extforcing_g_empmr_del2   =   0.0000000000000E+00
(PID.TID 0000.0001) %MON g__extforcing_g_fu_max       =   0.0000000000000E+00
(PID.TID 0000.0001) %MON g__extforcing_g_fu_min       =   0.0000000000000E+00
(PID.TID 0000.0001) %MON g__extforcing_g_fu_mean      =   0.0000000000000E+00
(PID.TID 0000.0001) %MON g__extforcing_g_fu_sd        =   0.0000000000000E+00
(PID.TID 0000.0001) %MON g__extforcing_g_fu_del2      =   0.0000000000000E+00
(PID.TID 0000.0001) %MON g__extforcing_g_fv_max       =   0.0000000000000E+00
(PID.TID 0000.0001) %MON g__extforcing_g_fv_min       =   0.0000000000000E+00
(PID.TID 0000.0001) %MON g__extforcing_g_fv_mean      =   0.0000000000000E+00
(PID.TID 0000.0001) %MON g__extforcing_g_fv_sd        =   0.0000000000000E+00
(PID.TID 0000.0001) %MON g__extforcing_g_fv_del2      =   0.0000000000000E+00
(PID.TID 0000.0001) %MON g__g_vcfl_g_uvel_max         =   1.1751117066902E-04
(PID.TID 0000.0001) %MON g__g_vcfl_g_vvel_max         =   4.1041938825854E-05
(PID.TID 0000.0001) %MON g__g_vcfl_g_wvel_max         =   1.4334008216080E-04
(PID.TID 0000.0001) %MON g__g_vcfl_g_W_hf_max         =   3.4401619718591E-04
(PID.TID 0000.0001) // =======================================================
(PID.TID 0000.0001) // End MONITOR dynamic field statistics
(PID.TID 0000.0001) // =======================================================
 cg2d: Sum(rhs),rhsMax =   3.37858518444833E-12  1.87818964244365E-02
 cg2d: Sum(rhs),rhsMax =   1.43003664465624E-13  8.05769528537580E+00
(PID.TID 0000.0001) // =======================================================
(PID.TID 0000.0001) // Begin MONITOR dynamic field statistics
(PID.TID 0000.0001) // =======================================================
(PID.TID 0000.0001) %MON g__time_tsnumber             =                    49
(PID.TID 0000.0001) %MON g__time_secondsf             =   2.1168000000000E+06
(PID.TID 0000.0001) %MON g__dynstat_g_eta_max         =   4.4649599364725E-03
(PID.TID 0000.0001) %MON g__dynstat_g_eta_min         =  -2.3841471518550E-05
(PID.TID 0000.0001) %MON g__dynstat_g_eta_mean        =  -4.0097182202418E-18
(PID.TID 0000.0001) %MON g__dynstat_g_eta_sd          =   5.6795945498649E-05
(PID.TID 0000.0001) %MON g__dynstat_g_eta_del2        =   2.8482748674665E-06
(PID.TID 0000.0001) %MON g__dynstat_g_uvel_max        =   2.2479410141995E-04
(PID.TID 0000.0001) %MON g__dynstat_g_uvel_min        =  -3.2677172815660E-04
(PID.TID 0000.0001) %MON g__dynstat_g_uvel_mean       =   4.9256029531520E-08
(PID.TID 0000.0001) %MON g__dynstat_g_uvel_sd         =   8.3724393414823E-07
(PID.TID 0000.0001) %MON g__dynstat_g_uvel_del2       =   6.9143713326257E-08
(PID.TID 0000.0001) %MON g__dynstat_g_vvel_max        =   4.3821422020515E-04
(PID.TID 0000.0001) %MON g__dynstat_g_vvel_min        =  -2.6243884137361E-04
(PID.TID 0000.0001) %MON g__dynstat_g_vvel_mean       =  -8.0276909800577E-09
(PID.TID 0000.0001) %MON g__dynstat_g_vvel_sd         =   9.8013747351689E-07
(PID.TID 0000.0001) %MON g__dynstat_g_vvel_del2       =   7.2097470054049E-08
(PID.TID 0000.0001) %MON g__dynstat_g_wvel_max        =   2.3464248907145E-07
(PID.TID 0000.0001) %MON g__dynstat_g_wvel_min        =  -1.8739481747203E-07
(PID.TID 0000.0001) %MON g__dynstat_g_wvel_mean       =  -2.8438410474860E-27
(PID.TID 0000.0001) %MON g__dynstat_g_wvel_sd         =   9.9596460450167E-10
(PID.TID 0000.0001) %MON g__dynstat_g_wvel_del2       =   1.2435390745532E-10
(PID.TID 0000.0001) %MON g__dynstat_g_theta_max       =   7.5886633271611E-01
(PID.TID 0000.0001) %MON g__dynstat_g_theta_min       =  -1.2671907075252E-03
(PID.TID 0000.0001) %MON g__dynstat_g_theta_mean      =   3.1371472785064E-06
(PID.TID 0000.0001) %MON g__dynstat_g_theta_sd        =   1.1678510664451E-03
(PID.TID 0000.0001) %MON g__dynstat_g_theta_del2      =   4.6337751142422E-05
(PID.TID 0000.0001) %MON g__dynstat_g_salt_max        =   6.8571849611384E-03
(PID.TID 0000.0001) %MON g__dynstat_g_salt_min        =  -1.2263791128580E-02
(PID.TID 0000.0001) %MON g__dynstat_g_salt_mean       =  -2.7675048205292E-10
(PID.TID 0000.0001) %MON g__dynstat_g_salt_sd         =   2.1698880171225E-05
(PID.TID 0000.0001) %MON g__dynstat_g_salt_del2       =   1.3730200331242E-06
(PID.TID 0000.0001) %MON g__dynstat_g_sst_max         =   7.5886633271611E-01
(PID.TID 0000.0001) %MON g__dynstat_g_sst_min         =  -8.7097660662763E-05
(PID.TID 0000.0001) %MON g__dynstat_g_sst_mean        =   1.5563833614363E-04
(PID.TID 0000.0001) %MON g__dynstat_g_sst_sd          =   9.6687569092568E-03
(PID.TID 0000.0001) %MON g__dynstat_g_sst_del2        =   4.4842711473989E-04
(PID.TID 0000.0001) %MON g__dynstat_g_sss_max         =   6.8571849611384E-03
(PID.TID 0000.0001) %MON g__dynstat_g_sss_min         =  -1.2263791128580E-02
(PID.TID 0000.0001) %MON g__dynstat_g_sss_mean        =   7.8171422350179E-08
(PID.TID 0000.0001) %MON g__dynstat_g_sss_sd          =   1.8695432711730E-04
(PID.TID 0000.0001) %MON g__dynstat_g_sss_del2        =   1.4627516471920E-05
(PID.TID 0000.0001) %MON g__extforcing_g_qnet_max     =   0.0000000000000E+00
(PID.TID 0000.0001) %MON g__extforcing_g_qnet_min     =   0.0000000000000E+00
(PID.TID 0000.0001) %MON g__extforcing_g_qnet_mean    =   0.0000000000000E+00
(PID.TID 0000.0001) %MON g__extforcing_g_qnet_sd      =   0.0000000000000E+00
(PID.TID 0000.0001) %MON g__extforcing_g_qnet_del2    =   0.0000000000000E+00
(PID.TID 0000.0001) %MON g__extforcing_g_empmr_max    =   0.0000000000000E+00
(PID.TID 0000.0001) %MON g__extforcing_g_empmr_min    =   0.0000000000000E+00
(PID.TID 0000.0001) %MON g__extforcing_g_empmr_mean   =   0.0000000000000E+00
(PID.TID 0000.0001) %MON g__extforcing_g_empmr_sd     =   0.0000000000000E+00
(PID.TID 0000.0001) %MON g__extforcing_g_empmr_del2   =   0.0000000000000E+00
(PID.TID 0000.0001) %MON g__extforcing_g_fu_max       =   0.0000000000000E+00
(PID.TID 0000.0001) %MON g__extforcing_g_fu_min       =   0.0000000000000E+00
(PID.TID 0000.0001) %MON g__extforcing_g_fu_mean      =   0.0000000000000E+00
(PID.TID 0000.0001) %MON g__extforcing_g_fu_sd        =   0.0000000000000E+00
(PID.TID 0000.0001) %MON g__extforcing_g_fu_del2      =   0.0000000000000E+00
(PID.TID 0000.0001) %MON g__extforcing_g_fv_max       =   0.0000000000000E+00
(PID.TID 0000.0001) %MON g__extforcing_g_fv_min       =   0.0000000000000E+00
(PID.TID 0000.0001) %MON g__extforcing_g_fv_mean      =   0.0000000000000E+00
(PID.TID 0000.0001) %MON g__extforcing_g_fv_sd        =   0.0000000000000E+00
(PID.TID 0000.0001) %MON g__extforcing_g_fv_del2      =   0.0000000000000E+00
(PID.TID 0000.0001) %MON g__g_vcfl_g_uvel_max         =   1.1516310226567E-04
(PID.TID 0000.0001) %MON g__g_vcfl_g_vvel_max         =   4.2568997437365E-05
(PID.TID 0000.0001) %MON g__g_vcfl_g_wvel_max         =   1.3380750179542E-04
(PID.TID 0000.0001) %MON g__g_vcfl_g_W_hf_max         =   3.2113800430901E-04
(PID.TID 0000.0001) // =======================================================
(PID.TID 0000.0001) // End MONITOR dynamic field statistics
(PID.TID 0000.0001) // =======================================================
 cg2d: Sum(rhs),rhsMax =   3.41429276900156E-12  1.84898101204976E-02
 cg2d: Sum(rhs),rhsMax =   2.72538935863764E-13  8.09041694797476E+00
(PID.TID 0000.0001) // =======================================================
(PID.TID 0000.0001) // Begin MONITOR dynamic field statistics
(PID.TID 0000.0001) // =======================================================
(PID.TID 0000.0001) %MON g__time_tsnumber             =                    50
(PID.TID 0000.0001) %MON g__time_secondsf             =   2.1600000000000E+06
(PID.TID 0000.0001) %MON g__dynstat_g_eta_max         =   4.3930384563811E-03
(PID.TID 0000.0001) %MON g__dynstat_g_eta_min         =  -2.7391751157716E-05
(PID.TID 0000.0001) %MON g__dynstat_g_eta_mean        =  -4.0683327337852E-18
(PID.TID 0000.0001) %MON g__dynstat_g_eta_sd          =   5.5876610569254E-05
(PID.TID 0000.0001) %MON g__dynstat_g_eta_del2        =   2.8105677484811E-06
(PID.TID 0000.0001) %MON g__dynstat_g_uvel_max        =   2.1871187844495E-04
(PID.TID 0000.0001) %MON g__dynstat_g_uvel_min        =  -3.1341015829470E-04
(PID.TID 0000.0001) %MON g__dynstat_g_uvel_mean       =   4.9688517002334E-08
(PID.TID 0000.0001) %MON g__dynstat_g_uvel_sd         =   8.1142437176850E-07
(PID.TID 0000.0001) %MON g__dynstat_g_uvel_del2       =   6.7442054876475E-08
(PID.TID 0000.0001) %MON g__dynstat_g_vvel_max        =   4.5072175951527E-04
(PID.TID 0000.0001) %MON g__dynstat_g_vvel_min        =  -2.5642770445526E-04
(PID.TID 0000.0001) %MON g__dynstat_g_vvel_mean       =  -3.6337727075868E-09
(PID.TID 0000.0001) %MON g__dynstat_g_vvel_sd         =   9.9187007291355E-07
(PID.TID 0000.0001) %MON g__dynstat_g_vvel_del2       =   7.1959181689562E-08
(PID.TID 0000.0001) %MON g__dynstat_g_wvel_max        =   2.1580569611490E-07
(PID.TID 0000.0001) %MON g__dynstat_g_wvel_min        =  -1.7968864815973E-07
(PID.TID 0000.0001) %MON g__dynstat_g_wvel_mean       =  -2.6202851470391E-27
(PID.TID 0000.0001) %MON g__dynstat_g_wvel_sd         =   9.4266171888421E-10
(PID.TID 0000.0001) %MON g__dynstat_g_wvel_del2       =   1.2279594017404E-10
(PID.TID 0000.0001) %MON g__dynstat_g_theta_max       =   7.4768270059196E-01
(PID.TID 0000.0001) %MON g__dynstat_g_theta_min       =  -1.3031466986734E-03
(PID.TID 0000.0001) %MON g__dynstat_g_theta_mean      =   3.1090516875308E-06
(PID.TID 0000.0001) %MON g__dynstat_g_theta_sd        =   1.1515819949437E-03
(PID.TID 0000.0001) %MON g__dynstat_g_theta_del2      =   4.5624127114246E-05
(PID.TID 0000.0001) %MON g__dynstat_g_salt_max        =   6.9112082520353E-03
(PID.TID 0000.0001) %MON g__dynstat_g_salt_min        =  -1.2280683147398E-02
(PID.TID 0000.0001) %MON g__dynstat_g_salt_mean       =   5.7761195045031E-11
(PID.TID 0000.0001) %MON g__dynstat_g_salt_sd         =   2.1766663603712E-05
(PID.TID 0000.0001) %MON g__dynstat_g_salt_del2       =   1.3838368118316E-06
(PID.TID 0000.0001) %MON g__dynstat_g_sst_max         =   7.4768270059196E-01
(PID.TID 0000.0001) %MON g__dynstat_g_sst_min         =  -8.6588436595787E-05
(PID.TID 0000.0001) %MON g__dynstat_g_sst_mean        =   1.5384286137502E-04
(PID.TID 0000.0001) %MON g__dynstat_g_sst_sd          =   9.5305653147756E-03
(PID.TID 0000.0001) %MON g__dynstat_g_sst_del2        =   4.4123481510914E-04
(PID.TID 0000.0001) %MON g__dynstat_g_sss_max         =   6.9112082520353E-03
(PID.TID 0000.0001) %MON g__dynstat_g_sss_min         =  -1.2280683147398E-02
(PID.TID 0000.0001) %MON g__dynstat_g_sss_mean        =   8.6803431841243E-08
(PID.TID 0000.0001) %MON g__dynstat_g_sss_sd          =   1.8736981066926E-04
(PID.TID 0000.0001) %MON g__dynstat_g_sss_del2        =   1.4674980638237E-05
(PID.TID 0000.0001) %MON g__extforcing_g_qnet_max     =   0.0000000000000E+00
(PID.TID 0000.0001) %MON g__extforcing_g_qnet_min     =   0.0000000000000E+00
(PID.TID 0000.0001) %MON g__extforcing_g_qnet_mean    =   0.0000000000000E+00
(PID.TID 0000.0001) %MON g__extforcing_g_qnet_sd      =   0.0000000000000E+00
(PID.TID 0000.0001) %MON g__extforcing_g_qnet_del2    =   0.0000000000000E+00
(PID.TID 0000.0001) %MON g__extforcing_g_empmr_max    =   0.0000000000000E+00
(PID.TID 0000.0001) %MON g__extforcing_g_empmr_min    =   0.0000000000000E+00
(PID.TID 0000.0001) %MON g__extforcing_g_empmr_mean   =   0.0000000000000E+00
(PID.TID 0000.0001) %MON g__extforcing_g_empmr_sd     =   0.0000000000000E+00
(PID.TID 0000.0001) %MON g__extforcing_g_empmr_del2   =   0.0000000000000E+00
(PID.TID 0000.0001) %MON g__extforcing_g_fu_max       =   0.0000000000000E+00
(PID.TID 0000.0001) %MON g__extforcing_g_fu_min       =   0.0000000000000E+00
(PID.TID 0000.0001) %MON g__extforcing_g_fu_mean      =   0.0000000000000E+00
(PID.TID 0000.0001) %MON g__extforcing_g_fu_sd        =   0.0000000000000E+00
(PID.TID 0000.0001) %MON g__extforcing_g_fu_del2      =   0.0000000000000E+00
(PID.TID 0000.0001) %MON g__extforcing_g_fv_max       =   0.0000000000000E+00
(PID.TID 0000.0001) %MON g__extforcing_g_fv_min       =   0.0000000000000E+00
(PID.TID 0000.0001) %MON g__extforcing_g_fv_mean      =   0.0000000000000E+00
(PID.TID 0000.0001) %MON g__extforcing_g_fv_sd        =   0.0000000000000E+00
(PID.TID 0000.0001) %MON g__extforcing_g_fv_del2      =   0.0000000000000E+00
(PID.TID 0000.0001) %MON g__g_vcfl_g_uvel_max         =   1.1045412745590E-04
(PID.TID 0000.0001) %MON g__g_vcfl_g_vvel_max         =   4.3784004582936E-05
(PID.TID 0000.0001) %MON g__g_vcfl_g_wvel_max         =   1.2161753990297E-04
(PID.TID 0000.0001) %MON g__g_vcfl_g_W_hf_max         =   2.9188209576712E-04
(PID.TID 0000.0001) // =======================================================
(PID.TID 0000.0001) // End MONITOR dynamic field statistics
(PID.TID 0000.0001) // =======================================================
 myIter=  50
(PID.TID 0000.0001) // Model state written, timestep        50
(PID.TID 0000.0001) 
 cg2d: Sum(rhs),rhsMax =   3.52041183323866E-12  1.81900733321076E-02
 cg2d: Sum(rhs),rhsMax =   3.17079695832945E-13  8.08616437912500E+00
(PID.TID 0000.0001) // =======================================================
(PID.TID 0000.0001) // Begin MONITOR dynamic field statistics
(PID.TID 0000.0001) // =======================================================
(PID.TID 0000.0001) %MON g__time_tsnumber             =                    51
(PID.TID 0000.0001) %MON g__time_secondsf             =   2.2032000000000E+06
(PID.TID 0000.0001) %MON g__dynstat_g_eta_max         =   4.3195566525212E-03
(PID.TID 0000.0001) %MON g__dynstat_g_eta_min         =  -3.3011263461245E-05
(PID.TID 0000.0001) %MON g__dynstat_g_eta_mean        =  -4.3074088965109E-18
(PID.TID 0000.0001) %MON g__dynstat_g_eta_sd          =   5.4940080834791E-05
(PID.TID 0000.0001) %MON g__dynstat_g_eta_del2        =   2.7711834435929E-06
(PID.TID 0000.0001) %MON g__dynstat_g_uvel_max        =   2.0613088237718E-04
(PID.TID 0000.0001) %MON g__dynstat_g_uvel_min        =  -2.9436800981500E-04
(PID.TID 0000.0001) %MON g__dynstat_g_uvel_mean       =   4.9519464014985E-08
(PID.TID 0000.0001) %MON g__dynstat_g_uvel_sd         =   7.7163443677123E-07
(PID.TID 0000.0001) %MON g__dynstat_g_uvel_del2       =   6.5270603176222E-08
(PID.TID 0000.0001) %MON g__dynstat_g_vvel_max        =   4.5966921741196E-04
(PID.TID 0000.0001) %MON g__dynstat_g_vvel_min        =  -2.5174619105634E-04
(PID.TID 0000.0001) %MON g__dynstat_g_vvel_mean       =   8.6987573477159E-10
(PID.TID 0000.0001) %MON g__dynstat_g_vvel_sd         =   9.9912322797539E-07
(PID.TID 0000.0001) %MON g__dynstat_g_vvel_del2       =   7.1536840750714E-08
(PID.TID 0000.0001) %MON g__dynstat_g_wvel_max        =   1.9253541613404E-07
(PID.TID 0000.0001) %MON g__dynstat_g_wvel_min        =  -1.6863309231775E-07
(PID.TID 0000.0001) %MON g__dynstat_g_wvel_mean       =  -5.3598292734555E-27
(PID.TID 0000.0001) %MON g__dynstat_g_wvel_sd         =   8.7977690199928E-10
(PID.TID 0000.0001) %MON g__dynstat_g_wvel_del2       =   1.2155885847759E-10
(PID.TID 0000.0001) %MON g__dynstat_g_theta_max       =   7.3651601576512E-01
(PID.TID 0000.0001) %MON g__dynstat_g_theta_min       =  -1.3423451761753E-03
(PID.TID 0000.0001) %MON g__dynstat_g_theta_mean      =   3.0798293472453E-06
(PID.TID 0000.0001) %MON g__dynstat_g_theta_sd        =   1.1352901941922E-03
(PID.TID 0000.0001) %MON g__dynstat_g_theta_del2      =   4.4909889552110E-05
(PID.TID 0000.0001) %MON g__dynstat_g_salt_max        =   6.9645998564440E-03
(PID.TID 0000.0001) %MON g__dynstat_g_salt_min        =  -1.2291508116932E-02
(PID.TID 0000.0001) %MON g__dynstat_g_salt_mean       =   3.9289431483580E-10
(PID.TID 0000.0001) %MON g__dynstat_g_salt_sd         =   2.1824755998767E-05
(PID.TID 0000.0001) %MON g__dynstat_g_salt_del2       =   1.3939973281956E-06
(PID.TID 0000.0001) %MON g__dynstat_g_sst_max         =   7.3651601576512E-01
(PID.TID 0000.0001) %MON g__dynstat_g_sst_min         =  -8.5304860558456E-05
(PID.TID 0000.0001) %MON g__dynstat_g_sst_mean        =   1.5202636251011E-04
(PID.TID 0000.0001) %MON g__dynstat_g_sst_sd          =   9.3925835574059E-03
(PID.TID 0000.0001) %MON g__dynstat_g_sst_del2        =   4.3407996732129E-04
(PID.TID 0000.0001) %MON g__dynstat_g_sss_max         =   6.9645998564440E-03
(PID.TID 0000.0001) %MON g__dynstat_g_sss_min         =  -1.2291508116932E-02
(PID.TID 0000.0001) %MON g__dynstat_g_sss_mean        =   9.4436782125271E-08
(PID.TID 0000.0001) %MON g__dynstat_g_sss_sd          =   1.8769951270225E-04
(PID.TID 0000.0001) %MON g__dynstat_g_sss_del2        =   1.4716753725252E-05
(PID.TID 0000.0001) %MON g__extforcing_g_qnet_max     =   0.0000000000000E+00
(PID.TID 0000.0001) %MON g__extforcing_g_qnet_min     =   0.0000000000000E+00
(PID.TID 0000.0001) %MON g__extforcing_g_qnet_mean    =   0.0000000000000E+00
(PID.TID 0000.0001) %MON g__extforcing_g_qnet_sd      =   0.0000000000000E+00
(PID.TID 0000.0001) %MON g__extforcing_g_qnet_del2    =   0.0000000000000E+00
(PID.TID 0000.0001) %MON g__extforcing_g_empmr_max    =   0.0000000000000E+00
(PID.TID 0000.0001) %MON g__extforcing_g_empmr_min    =   0.0000000000000E+00
(PID.TID 0000.0001) %MON g__extforcing_g_empmr_mean   =   0.0000000000000E+00
(PID.TID 0000.0001) %MON g__extforcing_g_empmr_sd     =   0.0000000000000E+00
(PID.TID 0000.0001) %MON g__extforcing_g_empmr_del2   =   0.0000000000000E+00
(PID.TID 0000.0001) %MON g__extforcing_g_fu_max       =   0.0000000000000E+00
(PID.TID 0000.0001) %MON g__extforcing_g_fu_min       =   0.0000000000000E+00
(PID.TID 0000.0001) %MON g__extforcing_g_fu_mean      =   0.0000000000000E+00
(PID.TID 0000.0001) %MON g__extforcing_g_fu_sd        =   0.0000000000000E+00
(PID.TID 0000.0001) %MON g__extforcing_g_fu_del2      =   0.0000000000000E+00
(PID.TID 0000.0001) %MON g__extforcing_g_fv_max       =   0.0000000000000E+00
(PID.TID 0000.0001) %MON g__extforcing_g_fv_min       =   0.0000000000000E+00
(PID.TID 0000.0001) %MON g__extforcing_g_fv_mean      =   0.0000000000000E+00
(PID.TID 0000.0001) %MON g__extforcing_g_fv_sd        =   0.0000000000000E+00
(PID.TID 0000.0001) %MON g__extforcing_g_fv_del2      =   0.0000000000000E+00
(PID.TID 0000.0001) %MON g__g_vcfl_g_uvel_max         =   1.0374316471412E-04
(PID.TID 0000.0001) %MON g__g_vcfl_g_vvel_max         =   4.4653178367613E-05
(PID.TID 0000.0001) %MON g__g_vcfl_g_wvel_max         =   1.1154544653029E-04
(PID.TID 0000.0001) %MON g__g_vcfl_g_W_hf_max         =   2.6770907167271E-04
(PID.TID 0000.0001) // =======================================================
(PID.TID 0000.0001) // End MONITOR dynamic field statistics
(PID.TID 0000.0001) // =======================================================
 cg2d: Sum(rhs),rhsMax =   3.78738950775107E-12  1.78975723906984E-02
 cg2d: Sum(rhs),rhsMax =   2.95950763895547E-13  8.05674108674482E+00
(PID.TID 0000.0001) // =======================================================
(PID.TID 0000.0001) // Begin MONITOR dynamic field statistics
(PID.TID 0000.0001) // =======================================================
(PID.TID 0000.0001) %MON g__time_tsnumber             =                    52
(PID.TID 0000.0001) %MON g__time_secondsf             =   2.2464000000000E+06
(PID.TID 0000.0001) %MON g__dynstat_g_eta_max         =   4.2482750860475E-03
(PID.TID 0000.0001) %MON g__dynstat_g_eta_min         =  -3.8137690486079E-05
(PID.TID 0000.0001) %MON g__dynstat_g_eta_mean        =  -4.5933736327564E-18
(PID.TID 0000.0001) %MON g__dynstat_g_eta_sd          =   5.4034550698943E-05
(PID.TID 0000.0001) %MON g__dynstat_g_eta_del2        =   2.7324382716164E-06
(PID.TID 0000.0001) %MON g__dynstat_g_uvel_max        =   1.8765310840036E-04
(PID.TID 0000.0001) %MON g__dynstat_g_uvel_min        =  -2.7087737912617E-04
(PID.TID 0000.0001) %MON g__dynstat_g_uvel_mean       =   4.8745433185414E-08
(PID.TID 0000.0001) %MON g__dynstat_g_uvel_sd         =   7.2244818523152E-07
(PID.TID 0000.0001) %MON g__dynstat_g_uvel_del2       =   6.2749540962903E-08
(PID.TID 0000.0001) %MON g__dynstat_g_vvel_max        =   4.6486597657395E-04
(PID.TID 0000.0001) %MON g__dynstat_g_vvel_min        =  -2.4836752517226E-04
(PID.TID 0000.0001) %MON g__dynstat_g_vvel_mean       =   5.3381309202217E-09
(PID.TID 0000.0001) %MON g__dynstat_g_vvel_sd         =   1.0012503380087E-06
(PID.TID 0000.0001) %MON g__dynstat_g_vvel_del2       =   7.0901267853971E-08
(PID.TID 0000.0001) %MON g__dynstat_g_wvel_max        =   1.6607550491865E-07
(PID.TID 0000.0001) %MON g__dynstat_g_wvel_min        =  -1.5510024374125E-07
(PID.TID 0000.0001) %MON g__dynstat_g_wvel_mean       =   2.5907985175085E-28
(PID.TID 0000.0001) %MON g__dynstat_g_wvel_sd         =   8.1629179312178E-10
(PID.TID 0000.0001) %MON g__dynstat_g_wvel_del2       =   1.2063303934719E-10
(PID.TID 0000.0001) %MON g__dynstat_g_theta_max       =   7.2562814488127E-01
(PID.TID 0000.0001) %MON g__dynstat_g_theta_min       =  -1.3809123014278E-03
(PID.TID 0000.0001) %MON g__dynstat_g_theta_mean      =   3.0513119197195E-06
(PID.TID 0000.0001) %MON g__dynstat_g_theta_sd        =   1.1194574294094E-03
(PID.TID 0000.0001) %MON g__dynstat_g_theta_del2      =   4.4218322392384E-05
(PID.TID 0000.0001) %MON g__dynstat_g_salt_max        =   7.0190928117902E-03
(PID.TID 0000.0001) %MON g__dynstat_g_salt_min        =  -1.2303405723769E-02
(PID.TID 0000.0001) %MON g__dynstat_g_salt_mean       =   7.2711523829291E-10
(PID.TID 0000.0001) %MON g__dynstat_g_salt_sd         =   2.1883245155510E-05
(PID.TID 0000.0001) %MON g__dynstat_g_salt_del2       =   1.4036449858088E-06
(PID.TID 0000.0001) %MON g__dynstat_g_sst_max         =   7.2562814488127E-01
(PID.TID 0000.0001) %MON g__dynstat_g_sst_min         =  -8.3428877529442E-05
(PID.TID 0000.0001) %MON g__dynstat_g_sst_mean        =   1.5024590475593E-04
(PID.TID 0000.0001) %MON g__dynstat_g_sst_sd          =   9.2581505915046E-03
(PID.TID 0000.0001) %MON g__dynstat_g_sst_del2        =   4.2711498591402E-04
(PID.TID 0000.0001) %MON g__dynstat_g_sss_max         =   7.0190928117902E-03
(PID.TID 0000.0001) %MON g__dynstat_g_sss_min         =  -1.2303405723769E-02
(PID.TID 0000.0001) %MON g__dynstat_g_sss_mean        =   1.0085391882782E-07
(PID.TID 0000.0001) %MON g__dynstat_g_sss_sd          =   1.8804443066314E-04
(PID.TID 0000.0001) %MON g__dynstat_g_sss_del2        =   1.4759350539736E-05
(PID.TID 0000.0001) %MON g__extforcing_g_qnet_max     =   0.0000000000000E+00
(PID.TID 0000.0001) %MON g__extforcing_g_qnet_min     =   0.0000000000000E+00
(PID.TID 0000.0001) %MON g__extforcing_g_qnet_mean    =   0.0000000000000E+00
(PID.TID 0000.0001) %MON g__extforcing_g_qnet_sd      =   0.0000000000000E+00
(PID.TID 0000.0001) %MON g__extforcing_g_qnet_del2    =   0.0000000000000E+00
(PID.TID 0000.0001) %MON g__extforcing_g_empmr_max    =   0.0000000000000E+00
(PID.TID 0000.0001) %MON g__extforcing_g_empmr_min    =   0.0000000000000E+00
(PID.TID 0000.0001) %MON g__extforcing_g_empmr_mean   =   0.0000000000000E+00
(PID.TID 0000.0001) %MON g__extforcing_g_empmr_sd     =   0.0000000000000E+00
(PID.TID 0000.0001) %MON g__extforcing_g_empmr_del2   =   0.0000000000000E+00
(PID.TID 0000.0001) %MON g__extforcing_g_fu_max       =   0.0000000000000E+00
(PID.TID 0000.0001) %MON g__extforcing_g_fu_min       =   0.0000000000000E+00
(PID.TID 0000.0001) %MON g__extforcing_g_fu_mean      =   0.0000000000000E+00
(PID.TID 0000.0001) %MON g__extforcing_g_fu_sd        =   0.0000000000000E+00
(PID.TID 0000.0001) %MON g__extforcing_g_fu_del2      =   0.0000000000000E+00
(PID.TID 0000.0001) %MON g__extforcing_g_fv_max       =   0.0000000000000E+00
(PID.TID 0000.0001) %MON g__extforcing_g_fv_min       =   0.0000000000000E+00
(PID.TID 0000.0001) %MON g__extforcing_g_fv_mean      =   0.0000000000000E+00
(PID.TID 0000.0001) %MON g__extforcing_g_fv_sd        =   0.0000000000000E+00
(PID.TID 0000.0001) %MON g__extforcing_g_fv_del2      =   0.0000000000000E+00
(PID.TID 0000.0001) %MON g__g_vcfl_g_uvel_max         =   9.5464437788862E-05
(PID.TID 0000.0001) %MON g__g_vcfl_g_vvel_max         =   4.5158001847203E-05
(PID.TID 0000.0001) %MON g__g_vcfl_g_wvel_max         =   1.0329211765227E-04
(PID.TID 0000.0001) %MON g__g_vcfl_g_W_hf_max         =   2.4790108236546E-04
(PID.TID 0000.0001) // =======================================================
(PID.TID 0000.0001) // End MONITOR dynamic field statistics
(PID.TID 0000.0001) // =======================================================
 cg2d: Sum(rhs),rhsMax =   4.10331785168120E-12  1.76257687927760E-02
 cg2d: Sum(rhs),rhsMax =   1.47978851394726E-13  8.18299903790893E+00
(PID.TID 0000.0001) // =======================================================
(PID.TID 0000.0001) // Begin MONITOR dynamic field statistics
(PID.TID 0000.0001) // =======================================================
(PID.TID 0000.0001) %MON g__time_tsnumber             =                    53
(PID.TID 0000.0001) %MON g__time_secondsf             =   2.2896000000000E+06
(PID.TID 0000.0001) %MON g__dynstat_g_eta_max         =   4.1825267577129E-03
(PID.TID 0000.0001) %MON g__dynstat_g_eta_min         =  -4.2558383395095E-05
(PID.TID 0000.0001) %MON g__dynstat_g_eta_mean        =  -4.8775363414076E-18
(PID.TID 0000.0001) %MON g__dynstat_g_eta_sd          =   5.3202096677272E-05
(PID.TID 0000.0001) %MON g__dynstat_g_eta_del2        =   2.6957198662674E-06
(PID.TID 0000.0001) %MON g__dynstat_g_uvel_max        =   1.6407884937507E-04
(PID.TID 0000.0001) %MON g__dynstat_g_uvel_min        =  -2.4431951070242E-04
(PID.TID 0000.0001) %MON g__dynstat_g_uvel_mean       =   4.7393163173714E-08
(PID.TID 0000.0001) %MON g__dynstat_g_uvel_sd         =   6.6940014058538E-07
(PID.TID 0000.0001) %MON g__dynstat_g_uvel_del2       =   6.0098036341676E-08
(PID.TID 0000.0001) %MON g__dynstat_g_vvel_max        =   4.6627788940138E-04
(PID.TID 0000.0001) %MON g__dynstat_g_vvel_min        =  -2.4624707261701E-04
(PID.TID 0000.0001) %MON g__dynstat_g_vvel_mean       =   9.6258140964021E-09
(PID.TID 0000.0001) %MON g__dynstat_g_vvel_sd         =   9.9801256603848E-07
(PID.TID 0000.0001) %MON g__dynstat_g_vvel_del2       =   6.9980347038921E-08
(PID.TID 0000.0001) %MON g__dynstat_g_wvel_max        =   1.3770454540998E-07
(PID.TID 0000.0001) %MON g__dynstat_g_wvel_min        =  -1.3999405120067E-07
(PID.TID 0000.0001) %MON g__dynstat_g_wvel_mean       =   3.2717034166389E-27
(PID.TID 0000.0001) %MON g__dynstat_g_wvel_sd         =   7.6149852872548E-10
(PID.TID 0000.0001) %MON g__dynstat_g_wvel_del2       =   1.1964429991302E-10
(PID.TID 0000.0001) %MON g__dynstat_g_theta_max       =   7.1525276388370E-01
(PID.TID 0000.0001) %MON g__dynstat_g_theta_min       =  -1.4146518874266E-03
(PID.TID 0000.0001) %MON g__dynstat_g_theta_mean      =   3.0251783408162E-06
(PID.TID 0000.0001) %MON g__dynstat_g_theta_sd        =   1.1045145640213E-03
(PID.TID 0000.0001) %MON g__dynstat_g_theta_del2      =   4.3569243620986E-05
(PID.TID 0000.0001) %MON g__dynstat_g_salt_max        =   7.0760829875798E-03
(PID.TID 0000.0001) %MON g__dynstat_g_salt_min        =  -1.2323126993075E-02
(PID.TID 0000.0001) %MON g__dynstat_g_salt_mean       =   1.0577660674895E-09
(PID.TID 0000.0001) %MON g__dynstat_g_salt_sd         =   2.1951421222512E-05
(PID.TID 0000.0001) %MON g__dynstat_g_salt_del2       =   1.4128561570850E-06
(PID.TID 0000.0001) %MON g__dynstat_g_sst_max         =   7.1525276388370E-01
(PID.TID 0000.0001) %MON g__dynstat_g_sst_min         =  -8.1138858025904E-05
(PID.TID 0000.0001) %MON g__dynstat_g_sst_mean        =   1.4855255749131E-04
(PID.TID 0000.0001) %MON g__dynstat_g_sst_sd          =   9.1302427715114E-03
(PID.TID 0000.0001) %MON g__dynstat_g_sst_del2        =   4.2046988227327E-04
(PID.TID 0000.0001) %MON g__dynstat_g_sss_max         =   7.0760829875798E-03
(PID.TID 0000.0001) %MON g__dynstat_g_sss_min         =  -1.2323126993075E-02
(PID.TID 0000.0001) %MON g__dynstat_g_sss_mean        =   1.0565968789087E-07
(PID.TID 0000.0001) %MON g__dynstat_g_sss_sd          =   1.8849873810645E-04
(PID.TID 0000.0001) %MON g__dynstat_g_sss_del2        =   1.4808553405573E-05
(PID.TID 0000.0001) %MON g__extforcing_g_qnet_max     =   0.0000000000000E+00
(PID.TID 0000.0001) %MON g__extforcing_g_qnet_min     =   0.0000000000000E+00
(PID.TID 0000.0001) %MON g__extforcing_g_qnet_mean    =   0.0000000000000E+00
(PID.TID 0000.0001) %MON g__extforcing_g_qnet_sd      =   0.0000000000000E+00
(PID.TID 0000.0001) %MON g__extforcing_g_qnet_del2    =   0.0000000000000E+00
(PID.TID 0000.0001) %MON g__extforcing_g_empmr_max    =   0.0000000000000E+00
(PID.TID 0000.0001) %MON g__extforcing_g_empmr_min    =   0.0000000000000E+00
(PID.TID 0000.0001) %MON g__extforcing_g_empmr_mean   =   0.0000000000000E+00
(PID.TID 0000.0001) %MON g__extforcing_g_empmr_sd     =   0.0000000000000E+00
(PID.TID 0000.0001) %MON g__extforcing_g_empmr_del2   =   0.0000000000000E+00
(PID.TID 0000.0001) %MON g__extforcing_g_fu_max       =   0.0000000000000E+00
(PID.TID 0000.0001) %MON g__extforcing_g_fu_min       =   0.0000000000000E+00
(PID.TID 0000.0001) %MON g__extforcing_g_fu_mean      =   0.0000000000000E+00
(PID.TID 0000.0001) %MON g__extforcing_g_fu_sd        =   0.0000000000000E+00
(PID.TID 0000.0001) %MON g__extforcing_g_fu_del2      =   0.0000000000000E+00
(PID.TID 0000.0001) %MON g__extforcing_g_fv_max       =   0.0000000000000E+00
(PID.TID 0000.0001) %MON g__extforcing_g_fv_min       =   0.0000000000000E+00
(PID.TID 0000.0001) %MON g__extforcing_g_fv_mean      =   0.0000000000000E+00
(PID.TID 0000.0001) %MON g__extforcing_g_fv_sd        =   0.0000000000000E+00
(PID.TID 0000.0001) %MON g__extforcing_g_fv_del2      =   0.0000000000000E+00
(PID.TID 0000.0001) %MON g__g_vcfl_g_uvel_max         =   8.6104734198541E-05
(PID.TID 0000.0001) %MON g__g_vcfl_g_vvel_max         =   4.5295157856208E-05
(PID.TID 0000.0001) %MON g__g_vcfl_g_wvel_max         =   9.4677592801911E-05
(PID.TID 0000.0001) %MON g__g_vcfl_g_W_hf_max         =   2.2561938218646E-04
(PID.TID 0000.0001) // =======================================================
(PID.TID 0000.0001) // End MONITOR dynamic field statistics
(PID.TID 0000.0001) // =======================================================
 cg2d: Sum(rhs),rhsMax =   4.41623763368624E-12  1.73858574240838E-02
 cg2d: Sum(rhs),rhsMax =   5.77475567364871E-13  9.40876964847958E+00
(PID.TID 0000.0001) // =======================================================
(PID.TID 0000.0001) // Begin MONITOR dynamic field statistics
(PID.TID 0000.0001) // =======================================================
(PID.TID 0000.0001) %MON g__time_tsnumber             =                    54
(PID.TID 0000.0001) %MON g__time_secondsf             =   2.3328000000000E+06
(PID.TID 0000.0001) %MON g__dynstat_g_eta_max         =   4.1250385466185E-03
(PID.TID 0000.0001) %MON g__dynstat_g_eta_min         =  -4.6131804710514E-05
(PID.TID 0000.0001) %MON g__dynstat_g_eta_mean        =  -5.1785220427652E-18
(PID.TID 0000.0001) %MON g__dynstat_g_eta_sd          =   5.2476790337296E-05
(PID.TID 0000.0001) %MON g__dynstat_g_eta_del2        =   2.6604705187049E-06
(PID.TID 0000.0001) %MON g__dynstat_g_uvel_max        =   1.3636794914618E-04
(PID.TID 0000.0001) %MON g__dynstat_g_uvel_min        =  -2.1614685291377E-04
(PID.TID 0000.0001) %MON g__dynstat_g_uvel_mean       =   4.5519207423294E-08
(PID.TID 0000.0001) %MON g__dynstat_g_uvel_sd         =   6.1866942167456E-07
(PID.TID 0000.0001) %MON g__dynstat_g_uvel_del2       =   5.7329416140583E-08
(PID.TID 0000.0001) %MON g__dynstat_g_vvel_max        =   4.6402043008163E-04
(PID.TID 0000.0001) %MON g__dynstat_g_vvel_min        =  -2.4532904258013E-04
(PID.TID 0000.0001) %MON g__dynstat_g_vvel_mean       =   1.3594343850413E-08
(PID.TID 0000.0001) %MON g__dynstat_g_vvel_sd         =   9.8954556033044E-07
(PID.TID 0000.0001) %MON g__dynstat_g_vvel_del2       =   6.8816001881503E-08
(PID.TID 0000.0001) %MON g__dynstat_g_wvel_max        =   1.0867131540679E-07
(PID.TID 0000.0001) %MON g__dynstat_g_wvel_min        =  -1.2419494708652E-07
(PID.TID 0000.0001) %MON g__dynstat_g_wvel_mean       =  -5.0407261936395E-27
(PID.TID 0000.0001) %MON g__dynstat_g_wvel_sd         =   7.2317810463290E-10
(PID.TID 0000.0001) %MON g__dynstat_g_wvel_del2       =   1.1858069664752E-10
(PID.TID 0000.0001) %MON g__dynstat_g_theta_max       =   7.0557809523257E-01
(PID.TID 0000.0001) %MON g__dynstat_g_theta_min       =  -1.4394463016631E-03
(PID.TID 0000.0001) %MON g__dynstat_g_theta_mean      =   3.0028337620128E-06
(PID.TID 0000.0001) %MON g__dynstat_g_theta_sd        =   1.0908101462886E-03
(PID.TID 0000.0001) %MON g__dynstat_g_theta_del2      =   4.2978856815307E-05
(PID.TID 0000.0001) %MON g__dynstat_g_salt_max        =   7.1365310338060E-03
(PID.TID 0000.0001) %MON g__dynstat_g_salt_min        =  -1.2356508381258E-02
(PID.TID 0000.0001) %MON g__dynstat_g_salt_mean       =   1.3802755910243E-09
(PID.TID 0000.0001) %MON g__dynstat_g_salt_sd         =   2.2037119929317E-05
(PID.TID 0000.0001) %MON g__dynstat_g_salt_del2       =   1.4218884865024E-06
(PID.TID 0000.0001) %MON g__dynstat_g_sst_max         =   7.0557809523257E-01
(PID.TID 0000.0001) %MON g__dynstat_g_sst_min         =  -7.8598786047559E-05
(PID.TID 0000.0001) %MON g__dynstat_g_sst_mean        =   1.4699199576321E-04
(PID.TID 0000.0001) %MON g__dynstat_g_sst_sd          =   9.0112550150586E-03
(PID.TID 0000.0001) %MON g__dynstat_g_sst_del2        =   4.1424944297608E-04
(PID.TID 0000.0001) %MON g__dynstat_g_sss_max         =   7.1365310338060E-03
(PID.TID 0000.0001) %MON g__dynstat_g_sss_min         =  -1.2356508381258E-02
(PID.TID 0000.0001) %MON g__dynstat_g_sss_mean        =   1.0925887079272E-07
(PID.TID 0000.0001) %MON g__dynstat_g_sss_sd          =   1.8914245496388E-04
(PID.TID 0000.0001) %MON g__dynstat_g_sss_del2        =   1.4870205962983E-05
(PID.TID 0000.0001) %MON g__extforcing_g_qnet_max     =   0.0000000000000E+00
(PID.TID 0000.0001) %MON g__extforcing_g_qnet_min     =   0.0000000000000E+00
(PID.TID 0000.0001) %MON g__extforcing_g_qnet_mean    =   0.0000000000000E+00
(PID.TID 0000.0001) %MON g__extforcing_g_qnet_sd      =   0.0000000000000E+00
(PID.TID 0000.0001) %MON g__extforcing_g_qnet_del2    =   0.0000000000000E+00
(PID.TID 0000.0001) %MON g__extforcing_g_empmr_max    =   0.0000000000000E+00
(PID.TID 0000.0001) %MON g__extforcing_g_empmr_min    =   0.0000000000000E+00
(PID.TID 0000.0001) %MON g__extforcing_g_empmr_mean   =   0.0000000000000E+00
(PID.TID 0000.0001) %MON g__extforcing_g_empmr_sd     =   0.0000000000000E+00
(PID.TID 0000.0001) %MON g__extforcing_g_empmr_del2   =   0.0000000000000E+00
(PID.TID 0000.0001) %MON g__extforcing_g_fu_max       =   0.0000000000000E+00
(PID.TID 0000.0001) %MON g__extforcing_g_fu_min       =   0.0000000000000E+00
(PID.TID 0000.0001) %MON g__extforcing_g_fu_mean      =   0.0000000000000E+00
(PID.TID 0000.0001) %MON g__extforcing_g_fu_sd        =   0.0000000000000E+00
(PID.TID 0000.0001) %MON g__extforcing_g_fu_del2      =   0.0000000000000E+00
(PID.TID 0000.0001) %MON g__extforcing_g_fv_max       =   0.0000000000000E+00
(PID.TID 0000.0001) %MON g__extforcing_g_fv_min       =   0.0000000000000E+00
(PID.TID 0000.0001) %MON g__extforcing_g_fv_mean      =   0.0000000000000E+00
(PID.TID 0000.0001) %MON g__extforcing_g_fv_sd        =   0.0000000000000E+00
(PID.TID 0000.0001) %MON g__extforcing_g_fv_del2      =   0.0000000000000E+00
(PID.TID 0000.0001) %MON g__g_vcfl_g_uvel_max         =   7.6175935620056E-05
(PID.TID 0000.0001) %MON g__g_vcfl_g_vvel_max         =   4.5075863785941E-05
(PID.TID 0000.0001) %MON g__g_vcfl_g_wvel_max         =   8.4245244181878E-05
(PID.TID 0000.0001) %MON g__g_vcfl_g_W_hf_max         =   2.0218858603651E-04
(PID.TID 0000.0001) // =======================================================
(PID.TID 0000.0001) // End MONITOR dynamic field statistics
(PID.TID 0000.0001) // =======================================================
 cg2d: Sum(rhs),rhsMax =   4.74238278674915E-12  1.71861210995342E-02
 cg2d: Sum(rhs),rhsMax =   1.07269748639283E-12  1.05293280195721E+01
(PID.TID 0000.0001) // =======================================================
(PID.TID 0000.0001) // Begin MONITOR dynamic field statistics
(PID.TID 0000.0001) // =======================================================
(PID.TID 0000.0001) %MON g__time_tsnumber             =                    55
(PID.TID 0000.0001) %MON g__time_secondsf             =   2.3760000000000E+06
(PID.TID 0000.0001) %MON g__dynstat_g_eta_max         =   4.0778014613041E-03
(PID.TID 0000.0001) %MON g__dynstat_g_eta_min         =  -4.8781782984926E-05
(PID.TID 0000.0001) %MON g__dynstat_g_eta_mean        =  -5.3482876199029E-18
(PID.TID 0000.0001) %MON g__dynstat_g_eta_sd          =   5.1883406541817E-05
(PID.TID 0000.0001) %MON g__dynstat_g_eta_del2        =   2.6296420901907E-06
(PID.TID 0000.0001) %MON g__dynstat_g_uvel_max        =   1.0559654242502E-04
(PID.TID 0000.0001) %MON g__dynstat_g_uvel_min        =  -1.9082337853061E-04
(PID.TID 0000.0001) %MON g__dynstat_g_uvel_mean       =   4.3207752848279E-08
(PID.TID 0000.0001) %MON g__dynstat_g_uvel_sd         =   5.7644027522642E-07
(PID.TID 0000.0001) %MON g__dynstat_g_uvel_del2       =   5.4564783931637E-08
(PID.TID 0000.0001) %MON g__dynstat_g_vvel_max        =   4.5834631799094E-04
(PID.TID 0000.0001) %MON g__dynstat_g_vvel_min        =  -2.4554932075007E-04
(PID.TID 0000.0001) %MON g__dynstat_g_vvel_mean       =   1.7118555271065E-08
(PID.TID 0000.0001) %MON g__dynstat_g_vvel_sd         =   9.7631136637808E-07
(PID.TID 0000.0001) %MON g__dynstat_g_vvel_del2       =   6.7481383869126E-08
(PID.TID 0000.0001) %MON g__dynstat_g_wvel_max        =   1.0355500970343E-07
(PID.TID 0000.0001) %MON g__dynstat_g_wvel_min        =  -1.0851717070917E-07
(PID.TID 0000.0001) %MON g__dynstat_g_wvel_mean       =   2.8978871082521E-28
(PID.TID 0000.0001) %MON g__dynstat_g_wvel_sd         =   7.0533072656702E-10
(PID.TID 0000.0001) %MON g__dynstat_g_wvel_del2       =   1.1744867096293E-10
(PID.TID 0000.0001) %MON g__dynstat_g_theta_max       =   6.9673364554583E-01
(PID.TID 0000.0001) %MON g__dynstat_g_theta_min       =  -1.4516599512217E-03
(PID.TID 0000.0001) %MON g__dynstat_g_theta_mean      =   2.9853130916569E-06
(PID.TID 0000.0001) %MON g__dynstat_g_theta_sd        =   1.0785865969720E-03
(PID.TID 0000.0001) %MON g__dynstat_g_theta_del2      =   4.2458038836809E-05
(PID.TID 0000.0001) %MON g__dynstat_g_salt_max        =   7.2008905897781E-03
(PID.TID 0000.0001) %MON g__dynstat_g_salt_min        =  -1.2408015042037E-02
(PID.TID 0000.0001) %MON g__dynstat_g_salt_mean       =   1.6875343083677E-09
(PID.TID 0000.0001) %MON g__dynstat_g_salt_sd         =   2.2146199919000E-05
(PID.TID 0000.0001) %MON g__dynstat_g_salt_del2       =   1.4308572452899E-06
(PID.TID 0000.0001) %MON g__dynstat_g_sst_max         =   6.9673364554583E-01
(PID.TID 0000.0001) %MON g__dynstat_g_sst_min         =  -7.5952808207443E-05
(PID.TID 0000.0001) %MON g__dynstat_g_sst_mean        =   1.4559358422724E-04
(PID.TID 0000.0001) %MON g__dynstat_g_sst_sd          =   8.9028335096213E-03
(PID.TID 0000.0001) %MON g__dynstat_g_sst_del2        =   4.0852406692057E-04
(PID.TID 0000.0001) %MON g__dynstat_g_sss_max         =   7.2008905897781E-03
(PID.TID 0000.0001) %MON g__dynstat_g_sss_min         =  -1.2408015042037E-02
(PID.TID 0000.0001) %MON g__dynstat_g_sss_mean        =   1.1158765176096E-07
(PID.TID 0000.0001) %MON g__dynstat_g_sss_sd          =   1.9003527341438E-04
(PID.TID 0000.0001) %MON g__dynstat_g_sss_del2        =   1.4947784744229E-05
(PID.TID 0000.0001) %MON g__extforcing_g_qnet_max     =   0.0000000000000E+00
(PID.TID 0000.0001) %MON g__extforcing_g_qnet_min     =   0.0000000000000E+00
(PID.TID 0000.0001) %MON g__extforcing_g_qnet_mean    =   0.0000000000000E+00
(PID.TID 0000.0001) %MON g__extforcing_g_qnet_sd      =   0.0000000000000E+00
(PID.TID 0000.0001) %MON g__extforcing_g_qnet_del2    =   0.0000000000000E+00
(PID.TID 0000.0001) %MON g__extforcing_g_empmr_max    =   0.0000000000000E+00
(PID.TID 0000.0001) %MON g__extforcing_g_empmr_min    =   0.0000000000000E+00
(PID.TID 0000.0001) %MON g__extforcing_g_empmr_mean   =   0.0000000000000E+00
(PID.TID 0000.0001) %MON g__extforcing_g_empmr_sd     =   0.0000000000000E+00
(PID.TID 0000.0001) %MON g__extforcing_g_empmr_del2   =   0.0000000000000E+00
(PID.TID 0000.0001) %MON g__extforcing_g_fu_max       =   0.0000000000000E+00
(PID.TID 0000.0001) %MON g__extforcing_g_fu_min       =   0.0000000000000E+00
(PID.TID 0000.0001) %MON g__extforcing_g_fu_mean      =   0.0000000000000E+00
(PID.TID 0000.0001) %MON g__extforcing_g_fu_sd        =   0.0000000000000E+00
(PID.TID 0000.0001) %MON g__extforcing_g_fu_del2      =   0.0000000000000E+00
(PID.TID 0000.0001) %MON g__extforcing_g_fv_max       =   0.0000000000000E+00
(PID.TID 0000.0001) %MON g__extforcing_g_fv_min       =   0.0000000000000E+00
(PID.TID 0000.0001) %MON g__extforcing_g_fv_mean      =   0.0000000000000E+00
(PID.TID 0000.0001) %MON g__extforcing_g_fv_sd        =   0.0000000000000E+00
(PID.TID 0000.0001) %MON g__extforcing_g_fv_del2      =   0.0000000000000E+00
(PID.TID 0000.0001) %MON g__g_vcfl_g_uvel_max         =   6.6185280215624E-05
(PID.TID 0000.0001) %MON g__g_vcfl_g_vvel_max         =   4.4524669297239E-05
(PID.TID 0000.0001) %MON g__g_vcfl_g_wvel_max         =   7.4502143411690E-05
(PID.TID 0000.0001) %MON g__g_vcfl_g_W_hf_max         =   1.7880514418806E-04
(PID.TID 0000.0001) // =======================================================
(PID.TID 0000.0001) // End MONITOR dynamic field statistics
(PID.TID 0000.0001) // =======================================================
 cg2d: Sum(rhs),rhsMax =   4.94256762881594E-12  1.70315297330071E-02
 cg2d: Sum(rhs),rhsMax =   1.29979360607990E-12  1.15144713398792E+01
(PID.TID 0000.0001) // =======================================================
(PID.TID 0000.0001) // Begin MONITOR dynamic field statistics
(PID.TID 0000.0001) // =======================================================
(PID.TID 0000.0001) %MON g__time_tsnumber             =                    56
(PID.TID 0000.0001) %MON g__time_secondsf             =   2.4192000000000E+06
(PID.TID 0000.0001) %MON g__dynstat_g_eta_max         =   4.0419960429662E-03
(PID.TID 0000.0001) %MON g__dynstat_g_eta_min         =  -5.0492015313807E-05
(PID.TID 0000.0001) %MON g__dynstat_g_eta_mean        =  -5.5656085983873E-18
(PID.TID 0000.0001) %MON g__dynstat_g_eta_sd          =   5.1436719075371E-05
(PID.TID 0000.0001) %MON g__dynstat_g_eta_del2        =   2.6053118428445E-06
(PID.TID 0000.0001) %MON g__dynstat_g_uvel_max        =   7.2912300541036E-05
(PID.TID 0000.0001) %MON g__dynstat_g_uvel_min        =  -1.9300805151498E-04
(PID.TID 0000.0001) %MON g__dynstat_g_uvel_mean       =   4.0566537717543E-08
(PID.TID 0000.0001) %MON g__dynstat_g_uvel_sd         =   5.4776031092123E-07
(PID.TID 0000.0001) %MON g__dynstat_g_uvel_del2       =   5.2400831693492E-08
(PID.TID 0000.0001) %MON g__dynstat_g_vvel_max        =   4.4962834001053E-04
(PID.TID 0000.0001) %MON g__dynstat_g_vvel_min        =  -2.4683510123822E-04
(PID.TID 0000.0001) %MON g__dynstat_g_vvel_mean       =   2.0093244054869E-08
(PID.TID 0000.0001) %MON g__dynstat_g_vvel_sd         =   9.5904112071673E-07
(PID.TID 0000.0001) %MON g__dynstat_g_vvel_del2       =   6.6051769750492E-08
(PID.TID 0000.0001) %MON g__dynstat_g_wvel_max        =   1.1001980156821E-07
(PID.TID 0000.0001) %MON g__dynstat_g_wvel_min        =  -9.3677932944232E-08
(PID.TID 0000.0001) %MON g__dynstat_g_wvel_mean       =  -4.3825706229303E-27
(PID.TID 0000.0001) %MON g__dynstat_g_wvel_sd         =   7.0676280391968E-10
(PID.TID 0000.0001) %MON g__dynstat_g_wvel_del2       =   1.1607090888895E-10
(PID.TID 0000.0001) %MON g__dynstat_g_theta_max       =   6.8878225260204E-01
(PID.TID 0000.0001) %MON g__dynstat_g_theta_min       =  -1.4484972380485E-03
(PID.TID 0000.0001) %MON g__dynstat_g_theta_mean      =   2.9732197868984E-06
(PID.TID 0000.0001) %MON g__dynstat_g_theta_sd        =   1.0679659000550E-03
(PID.TID 0000.0001) %MON g__dynstat_g_theta_del2      =   4.2012107036992E-05
(PID.TID 0000.0001) %MON g__dynstat_g_salt_max        =   7.2690752402847E-03
(PID.TID 0000.0001) %MON g__dynstat_g_salt_min        =  -1.2480398130258E-02
(PID.TID 0000.0001) %MON g__dynstat_g_salt_mean       =   1.9702869043596E-09
(PID.TID 0000.0001) %MON g__dynstat_g_salt_sd         =   2.2282182273497E-05
(PID.TID 0000.0001) %MON g__dynstat_g_salt_del2       =   1.4399277127507E-06
(PID.TID 0000.0001) %MON g__dynstat_g_sst_max         =   6.8878225260204E-01
(PID.TID 0000.0001) %MON g__dynstat_g_sst_min         =  -7.3324463237836E-05
(PID.TID 0000.0001) %MON g__dynstat_g_sst_mean        =   1.4437428177605E-04
(PID.TID 0000.0001) %MON g__dynstat_g_sst_sd          =   8.8057756322902E-03
(PID.TID 0000.0001) %MON g__dynstat_g_sst_del2        =   4.0332918935375E-04
(PID.TID 0000.0001) %MON g__dynstat_g_sss_max         =   7.2690752402847E-03
(PID.TID 0000.0001) %MON g__dynstat_g_sss_min         =  -1.2480398130258E-02
(PID.TID 0000.0001) %MON g__dynstat_g_sss_mean        =   1.1272310288577E-07
(PID.TID 0000.0001) %MON g__dynstat_g_sss_sd          =   1.9121215073669E-04
(PID.TID 0000.0001) %MON g__dynstat_g_sss_del2        =   1.5044124747127E-05
(PID.TID 0000.0001) %MON g__extforcing_g_qnet_max     =   0.0000000000000E+00
(PID.TID 0000.0001) %MON g__extforcing_g_qnet_min     =   0.0000000000000E+00
(PID.TID 0000.0001) %MON g__extforcing_g_qnet_mean    =   0.0000000000000E+00
(PID.TID 0000.0001) %MON g__extforcing_g_qnet_sd      =   0.0000000000000E+00
(PID.TID 0000.0001) %MON g__extforcing_g_qnet_del2    =   0.0000000000000E+00
(PID.TID 0000.0001) %MON g__extforcing_g_empmr_max    =   0.0000000000000E+00
(PID.TID 0000.0001) %MON g__extforcing_g_empmr_min    =   0.0000000000000E+00
(PID.TID 0000.0001) %MON g__extforcing_g_empmr_mean   =   0.0000000000000E+00
(PID.TID 0000.0001) %MON g__extforcing_g_empmr_sd     =   0.0000000000000E+00
(PID.TID 0000.0001) %MON g__extforcing_g_empmr_del2   =   0.0000000000000E+00
(PID.TID 0000.0001) %MON g__extforcing_g_fu_max       =   0.0000000000000E+00
(PID.TID 0000.0001) %MON g__extforcing_g_fu_min       =   0.0000000000000E+00
(PID.TID 0000.0001) %MON g__extforcing_g_fu_mean      =   0.0000000000000E+00
(PID.TID 0000.0001) %MON g__extforcing_g_fu_sd        =   0.0000000000000E+00
(PID.TID 0000.0001) %MON g__extforcing_g_fu_del2      =   0.0000000000000E+00
(PID.TID 0000.0001) %MON g__extforcing_g_fv_max       =   0.0000000000000E+00
(PID.TID 0000.0001) %MON g__extforcing_g_fv_min       =   0.0000000000000E+00
(PID.TID 0000.0001) %MON g__extforcing_g_fv_mean      =   0.0000000000000E+00
(PID.TID 0000.0001) %MON g__extforcing_g_fv_sd        =   0.0000000000000E+00
(PID.TID 0000.0001) %MON g__extforcing_g_fv_del2      =   0.0000000000000E+00
(PID.TID 0000.0001) %MON g__g_vcfl_g_uvel_max         =   5.6606114235194E-05
(PID.TID 0000.0001) %MON g__g_vcfl_g_vvel_max         =   4.3677787646221E-05
(PID.TID 0000.0001) %MON g__g_vcfl_g_wvel_max         =   6.5209566609422E-05
(PID.TID 0000.0001) %MON g__g_vcfl_g_W_hf_max         =   1.5650295986261E-04
(PID.TID 0000.0001) // =======================================================
(PID.TID 0000.0001) // End MONITOR dynamic field statistics
(PID.TID 0000.0001) // =======================================================
 cg2d: Sum(rhs),rhsMax =   5.17580847863132E-12  1.69235945213968E-02
 cg2d: Sum(rhs),rhsMax =   1.36504696435225E-12  1.23395344882039E+01
(PID.TID 0000.0001) // =======================================================
(PID.TID 0000.0001) // Begin MONITOR dynamic field statistics
(PID.TID 0000.0001) // =======================================================
(PID.TID 0000.0001) %MON g__time_tsnumber             =                    57
(PID.TID 0000.0001) %MON g__time_secondsf             =   2.4624000000000E+06
(PID.TID 0000.0001) %MON g__dynstat_g_eta_max         =   4.0179726149706E-03
(PID.TID 0000.0001) %MON g__dynstat_g_eta_min         =  -5.1291479245699E-05
(PID.TID 0000.0001) %MON g__dynstat_g_eta_mean        =  -5.7603039481054E-18
(PID.TID 0000.0001) %MON g__dynstat_g_eta_sd          =   5.1141346938668E-05
(PID.TID 0000.0001) %MON g__dynstat_g_eta_del2        =   2.5891739327511E-06
(PID.TID 0000.0001) %MON g__dynstat_g_uvel_max        =   3.9489001308724E-05
(PID.TID 0000.0001) %MON g__dynstat_g_uvel_min        =  -1.9406667732973E-04
(PID.TID 0000.0001) %MON g__dynstat_g_uvel_mean       =   3.7720945192824E-08
(PID.TID 0000.0001) %MON g__dynstat_g_uvel_sd         =   5.3509152249355E-07
(PID.TID 0000.0001) %MON g__dynstat_g_uvel_del2       =   5.0679001546856E-08
(PID.TID 0000.0001) %MON g__dynstat_g_vvel_max        =   4.3833829602630E-04
(PID.TID 0000.0001) %MON g__dynstat_g_vvel_min        =  -2.4910241001078E-04
(PID.TID 0000.0001) %MON g__dynstat_g_vvel_mean       =   2.2438804733410E-08
(PID.TID 0000.0001) %MON g__dynstat_g_vvel_sd         =   9.3867254323836E-07
(PID.TID 0000.0001) %MON g__dynstat_g_vvel_del2       =   6.4522642416086E-08
(PID.TID 0000.0001) %MON g__dynstat_g_wvel_max        =   1.1438861141589E-07
(PID.TID 0000.0001) %MON g__dynstat_g_wvel_min        =  -8.0276243027512E-08
(PID.TID 0000.0001) %MON g__dynstat_g_wvel_mean       =   2.5601744215569E-28
(PID.TID 0000.0001) %MON g__dynstat_g_wvel_sd         =   7.2187755068437E-10
(PID.TID 0000.0001) %MON g__dynstat_g_wvel_del2       =   1.1429220506139E-10
(PID.TID 0000.0001) %MON g__dynstat_g_theta_max       =   6.8171809607365E-01
(PID.TID 0000.0001) %MON g__dynstat_g_theta_min       =  -1.4282828513952E-03
(PID.TID 0000.0001) %MON g__dynstat_g_theta_mean      =   2.9666991534142E-06
(PID.TID 0000.0001) %MON g__dynstat_g_theta_sd        =   1.0589455730300E-03
(PID.TID 0000.0001) %MON g__dynstat_g_theta_del2      =   4.1640479688373E-05
(PID.TID 0000.0001) %MON g__dynstat_g_salt_max        =   7.3404709716146E-03
(PID.TID 0000.0001) %MON g__dynstat_g_salt_min        =  -1.2574497378461E-02
(PID.TID 0000.0001) %MON g__dynstat_g_salt_mean       =   2.2174465769010E-09
(PID.TID 0000.0001) %MON g__dynstat_g_salt_sd         =   2.2446059155333E-05
(PID.TID 0000.0001) %MON g__dynstat_g_salt_del2       =   1.4491574174576E-06
(PID.TID 0000.0001) %MON g__dynstat_g_sst_max         =   6.8171809607365E-01
(PID.TID 0000.0001) %MON g__dynstat_g_sst_min         =  -7.0817675641414E-05
(PID.TID 0000.0001) %MON g__dynstat_g_sst_mean        =   1.4333632293378E-04
(PID.TID 0000.0001) %MON g__dynstat_g_sst_sd          =   8.7200053389152E-03
(PID.TID 0000.0001) %MON g__dynstat_g_sst_del2        =   3.9865713946725E-04
(PID.TID 0000.0001) %MON g__dynstat_g_sss_max         =   7.3404709716146E-03
(PID.TID 0000.0001) %MON g__dynstat_g_sss_min         =  -1.2574497378461E-02
(PID.TID 0000.0001) %MON g__dynstat_g_sss_mean        =   1.1280948126469E-07
(PID.TID 0000.0001) %MON g__dynstat_g_sss_sd          =   1.9268103162173E-04
(PID.TID 0000.0001) %MON g__dynstat_g_sss_del2        =   1.5159702137155E-05
(PID.TID 0000.0001) %MON g__extforcing_g_qnet_max     =   0.0000000000000E+00
(PID.TID 0000.0001) %MON g__extforcing_g_qnet_min     =   0.0000000000000E+00
(PID.TID 0000.0001) %MON g__extforcing_g_qnet_mean    =   0.0000000000000E+00
(PID.TID 0000.0001) %MON g__extforcing_g_qnet_sd      =   0.0000000000000E+00
(PID.TID 0000.0001) %MON g__extforcing_g_qnet_del2    =   0.0000000000000E+00
(PID.TID 0000.0001) %MON g__extforcing_g_empmr_max    =   0.0000000000000E+00
(PID.TID 0000.0001) %MON g__extforcing_g_empmr_min    =   0.0000000000000E+00
(PID.TID 0000.0001) %MON g__extforcing_g_empmr_mean   =   0.0000000000000E+00
(PID.TID 0000.0001) %MON g__extforcing_g_empmr_sd     =   0.0000000000000E+00
(PID.TID 0000.0001) %MON g__extforcing_g_empmr_del2   =   0.0000000000000E+00
(PID.TID 0000.0001) %MON g__extforcing_g_fu_max       =   0.0000000000000E+00
(PID.TID 0000.0001) %MON g__extforcing_g_fu_min       =   0.0000000000000E+00
(PID.TID 0000.0001) %MON g__extforcing_g_fu_mean      =   0.0000000000000E+00
(PID.TID 0000.0001) %MON g__extforcing_g_fu_sd        =   0.0000000000000E+00
(PID.TID 0000.0001) %MON g__extforcing_g_fu_del2      =   0.0000000000000E+00
(PID.TID 0000.0001) %MON g__extforcing_g_fv_max       =   0.0000000000000E+00
(PID.TID 0000.0001) %MON g__extforcing_g_fv_min       =   0.0000000000000E+00
(PID.TID 0000.0001) %MON g__extforcing_g_fv_mean      =   0.0000000000000E+00
(PID.TID 0000.0001) %MON g__extforcing_g_fv_sd        =   0.0000000000000E+00
(PID.TID 0000.0001) %MON g__extforcing_g_fv_del2      =   0.0000000000000E+00
(PID.TID 0000.0001) %MON g__g_vcfl_g_uvel_max         =   5.5119623340370E-05
(PID.TID 0000.0001) %MON g__g_vcfl_g_vvel_max         =   4.2581050408421E-05
(PID.TID 0000.0001) %MON g__g_vcfl_g_wvel_max         =   6.6647823394361E-05
(PID.TID 0000.0001) %MON g__g_vcfl_g_W_hf_max         =   1.5995477614647E-04
(PID.TID 0000.0001) // =======================================================
(PID.TID 0000.0001) // End MONITOR dynamic field statistics
(PID.TID 0000.0001) // =======================================================
 cg2d: Sum(rhs),rhsMax =   5.37647155601077E-12  1.68604622200299E-02
 cg2d: Sum(rhs),rhsMax =   1.98138727647290E-12  1.29859656251116E+01
(PID.TID 0000.0001) // =======================================================
(PID.TID 0000.0001) // Begin MONITOR dynamic field statistics
(PID.TID 0000.0001) // =======================================================
(PID.TID 0000.0001) %MON g__time_tsnumber             =                    58
(PID.TID 0000.0001) %MON g__time_secondsf             =   2.5056000000000E+06
(PID.TID 0000.0001) %MON g__dynstat_g_eta_max         =   4.0052818440314E-03
(PID.TID 0000.0001) %MON g__dynstat_g_eta_min         =  -5.1877098482790E-05
(PID.TID 0000.0001) %MON g__dynstat_g_eta_mean        =  -5.9207695234666E-18
(PID.TID 0000.0001) %MON g__dynstat_g_eta_sd          =   5.0992105434315E-05
(PID.TID 0000.0001) %MON g__dynstat_g_eta_del2        =   2.5796309046691E-06
(PID.TID 0000.0001) %MON g__dynstat_g_uvel_max        =   3.1592572405519E-05
(PID.TID 0000.0001) %MON g__dynstat_g_uvel_min        =  -1.9405257051220E-04
(PID.TID 0000.0001) %MON g__dynstat_g_uvel_mean       =   3.4806667020514E-08
(PID.TID 0000.0001) %MON g__dynstat_g_uvel_sd         =   5.3743323159301E-07
(PID.TID 0000.0001) %MON g__dynstat_g_uvel_del2       =   5.2011934161330E-08
(PID.TID 0000.0001) %MON g__dynstat_g_vvel_max        =   4.2502299880819E-04
(PID.TID 0000.0001) %MON g__dynstat_g_vvel_min        =  -2.5225274155430E-04
(PID.TID 0000.0001) %MON g__dynstat_g_vvel_mean       =   2.4105581433606E-08
(PID.TID 0000.0001) %MON g__dynstat_g_vvel_sd         =   9.1628247148728E-07
(PID.TID 0000.0001) %MON g__dynstat_g_vvel_del2       =   6.2920435835617E-08
(PID.TID 0000.0001) %MON g__dynstat_g_wvel_max        =   1.1656381472310E-07
(PID.TID 0000.0001) %MON g__dynstat_g_wvel_min        =  -6.8779050645015E-08
(PID.TID 0000.0001) %MON g__dynstat_g_wvel_mean       =  -4.5286913093281E-27
(PID.TID 0000.0001) %MON g__dynstat_g_wvel_sd         =   7.4318485850911E-10
(PID.TID 0000.0001) %MON g__dynstat_g_wvel_del2       =   1.1460242365691E-10
(PID.TID 0000.0001) %MON g__dynstat_g_theta_max       =   6.7547063247168E-01
(PID.TID 0000.0001) %MON g__dynstat_g_theta_min       =  -1.3906469197616E-03
(PID.TID 0000.0001) %MON g__dynstat_g_theta_mean      =   2.9654494324203E-06
(PID.TID 0000.0001) %MON g__dynstat_g_theta_sd        =   1.0514046738356E-03
(PID.TID 0000.0001) %MON g__dynstat_g_theta_del2      =   4.1336639965718E-05
(PID.TID 0000.0001) %MON g__dynstat_g_salt_max        =   7.4139947943214E-03
(PID.TID 0000.0001) %MON g__dynstat_g_salt_min        =  -1.2689204561866E-02
(PID.TID 0000.0001) %MON g__dynstat_g_salt_mean       =   2.4174679441604E-09
(PID.TID 0000.0001) %MON g__dynstat_g_salt_sd         =   2.2636269650867E-05
(PID.TID 0000.0001) %MON g__dynstat_g_salt_del2       =   1.4585393223027E-06
(PID.TID 0000.0001) %MON g__dynstat_g_sst_max         =   6.7547063247168E-01
(PID.TID 0000.0001) %MON g__dynstat_g_sst_min         =  -6.8520108081277E-05
(PID.TID 0000.0001) %MON g__dynstat_g_sst_mean        =   1.4246914421722E-04
(PID.TID 0000.0001) %MON g__dynstat_g_sst_sd          =   8.6446231917069E-03
(PID.TID 0000.0001) %MON g__dynstat_g_sst_del2        =   3.9446444033807E-04
(PID.TID 0000.0001) %MON g__dynstat_g_sss_max         =   7.4139947943214E-03
(PID.TID 0000.0001) %MON g__dynstat_g_sss_min         =  -1.2689204561866E-02
(PID.TID 0000.0001) %MON g__dynstat_g_sss_mean        =   1.1203261285843E-07
(PID.TID 0000.0001) %MON g__dynstat_g_sss_sd          =   1.9442282383378E-04
(PID.TID 0000.0001) %MON g__dynstat_g_sss_del2        =   1.5292985580127E-05
(PID.TID 0000.0001) %MON g__extforcing_g_qnet_max     =   0.0000000000000E+00
(PID.TID 0000.0001) %MON g__extforcing_g_qnet_min     =   0.0000000000000E+00
(PID.TID 0000.0001) %MON g__extforcing_g_qnet_mean    =   0.0000000000000E+00
(PID.TID 0000.0001) %MON g__extforcing_g_qnet_sd      =   0.0000000000000E+00
(PID.TID 0000.0001) %MON g__extforcing_g_qnet_del2    =   0.0000000000000E+00
(PID.TID 0000.0001) %MON g__extforcing_g_empmr_max    =   0.0000000000000E+00
(PID.TID 0000.0001) %MON g__extforcing_g_empmr_min    =   0.0000000000000E+00
(PID.TID 0000.0001) %MON g__extforcing_g_empmr_mean   =   0.0000000000000E+00
(PID.TID 0000.0001) %MON g__extforcing_g_empmr_sd     =   0.0000000000000E+00
(PID.TID 0000.0001) %MON g__extforcing_g_empmr_del2   =   0.0000000000000E+00
(PID.TID 0000.0001) %MON g__extforcing_g_fu_max       =   0.0000000000000E+00
(PID.TID 0000.0001) %MON g__extforcing_g_fu_min       =   0.0000000000000E+00
(PID.TID 0000.0001) %MON g__extforcing_g_fu_mean      =   0.0000000000000E+00
(PID.TID 0000.0001) %MON g__extforcing_g_fu_sd        =   0.0000000000000E+00
(PID.TID 0000.0001) %MON g__extforcing_g_fu_del2      =   0.0000000000000E+00
(PID.TID 0000.0001) %MON g__extforcing_g_fv_max       =   0.0000000000000E+00
(PID.TID 0000.0001) %MON g__extforcing_g_fv_min       =   0.0000000000000E+00
(PID.TID 0000.0001) %MON g__extforcing_g_fv_mean      =   0.0000000000000E+00
(PID.TID 0000.0001) %MON g__extforcing_g_fv_sd        =   0.0000000000000E+00
(PID.TID 0000.0001) %MON g__extforcing_g_fv_del2      =   0.0000000000000E+00
(PID.TID 0000.0001) %MON g__g_vcfl_g_uvel_max         =   5.5115616663491E-05
(PID.TID 0000.0001) %MON g__g_vcfl_g_vvel_max         =   4.1287576059528E-05
(PID.TID 0000.0001) %MON g__g_vcfl_g_wvel_max         =   6.7840713757761E-05
(PID.TID 0000.0001) %MON g__g_vcfl_g_W_hf_max         =   1.6281771301863E-04
(PID.TID 0000.0001) // =======================================================
(PID.TID 0000.0001) // End MONITOR dynamic field statistics
(PID.TID 0000.0001) // =======================================================
 cg2d: Sum(rhs),rhsMax =   5.53471904704090E-12  1.68372195963321E-02
 cg2d: Sum(rhs),rhsMax =   2.21875295913776E-12  1.34416463490861E+01
(PID.TID 0000.0001) // =======================================================
(PID.TID 0000.0001) // Begin MONITOR dynamic field statistics
(PID.TID 0000.0001) // =======================================================
(PID.TID 0000.0001) %MON g__time_tsnumber             =                    59
(PID.TID 0000.0001) %MON g__time_secondsf             =   2.5488000000000E+06
(PID.TID 0000.0001) %MON g__dynstat_g_eta_max         =   4.0027486999213E-03
(PID.TID 0000.0001) %MON g__dynstat_g_eta_min         =  -5.2420677705974E-05
(PID.TID 0000.0001) %MON g__dynstat_g_eta_mean        =  -6.0637766811080E-18
(PID.TID 0000.0001) %MON g__dynstat_g_eta_sd          =   5.0974818696118E-05
(PID.TID 0000.0001) %MON g__dynstat_g_eta_del2        =   2.5772377779173E-06
(PID.TID 0000.0001) %MON g__dynstat_g_uvel_max        =   3.4693524209020E-05
(PID.TID 0000.0001) %MON g__dynstat_g_uvel_min        =  -1.9305003995185E-04
(PID.TID 0000.0001) %MON g__dynstat_g_uvel_mean       =   3.1961249184297E-08
(PID.TID 0000.0001) %MON g__dynstat_g_uvel_sd         =   5.5088332541694E-07
(PID.TID 0000.0001) %MON g__dynstat_g_uvel_del2       =   5.4188381054743E-08
(PID.TID 0000.0001) %MON g__dynstat_g_vvel_max        =   4.1027829236269E-04
(PID.TID 0000.0001) %MON g__dynstat_g_vvel_min        =  -2.5616992633592E-04
(PID.TID 0000.0001) %MON g__dynstat_g_vvel_mean       =   2.5076333436384E-08
(PID.TID 0000.0001) %MON g__dynstat_g_vvel_sd         =   8.9301486484690E-07
(PID.TID 0000.0001) %MON g__dynstat_g_vvel_del2       =   6.1413140974828E-08
(PID.TID 0000.0001) %MON g__dynstat_g_wvel_max        =   1.1659065569458E-07
(PID.TID 0000.0001) %MON g__dynstat_g_wvel_min        =  -5.9995076782997E-08
(PID.TID 0000.0001) %MON g__dynstat_g_wvel_mean       =  -3.0872588615930E-27
(PID.TID 0000.0001) %MON g__dynstat_g_wvel_sd         =   7.6369032301174E-10
(PID.TID 0000.0001) %MON g__dynstat_g_wvel_del2       =   1.1601475349394E-10
(PID.TID 0000.0001) %MON g__dynstat_g_theta_max       =   6.6991380985068E-01
(PID.TID 0000.0001) %MON g__dynstat_g_theta_min       =  -1.3366058415413E-03
(PID.TID 0000.0001) %MON g__dynstat_g_theta_mean      =   2.9687647015236E-06
(PID.TID 0000.0001) %MON g__dynstat_g_theta_sd        =   1.0451188284370E-03
(PID.TID 0000.0001) %MON g__dynstat_g_theta_del2      =   4.1089151842067E-05
(PID.TID 0000.0001) %MON g__dynstat_g_salt_max        =   7.4881949415592E-03
(PID.TID 0000.0001) %MON g__dynstat_g_salt_min        =  -1.2821588538201E-02
(PID.TID 0000.0001) %MON g__dynstat_g_salt_mean       =   2.5596787572415E-09
(PID.TID 0000.0001) %MON g__dynstat_g_salt_sd         =   2.2848839722601E-05
(PID.TID 0000.0001) %MON g__dynstat_g_salt_del2       =   1.4679802588024E-06
(PID.TID 0000.0001) %MON g__dynstat_g_sst_max         =   6.6991380985068E-01
(PID.TID 0000.0001) %MON g__dynstat_g_sst_min         =  -6.6506657470028E-05
(PID.TID 0000.0001) %MON g__dynstat_g_sst_mean        =   1.4174841235988E-04
(PID.TID 0000.0001) %MON g__dynstat_g_sst_sd          =   8.5780230596019E-03
(PID.TID 0000.0001) %MON g__dynstat_g_sst_del2        =   3.9067445550240E-04
(PID.TID 0000.0001) %MON g__dynstat_g_sss_max         =   7.4881949415592E-03
(PID.TID 0000.0001) %MON g__dynstat_g_sss_min         =  -1.2821588538201E-02
(PID.TID 0000.0001) %MON g__dynstat_g_sss_mean        =   1.1050819688645E-07
(PID.TID 0000.0001) %MON g__dynstat_g_sss_sd          =   1.9639355063676E-04
(PID.TID 0000.0001) %MON g__dynstat_g_sss_del2        =   1.5440881863361E-05
(PID.TID 0000.0001) %MON g__extforcing_g_qnet_max     =   0.0000000000000E+00
(PID.TID 0000.0001) %MON g__extforcing_g_qnet_min     =   0.0000000000000E+00
(PID.TID 0000.0001) %MON g__extforcing_g_qnet_mean    =   0.0000000000000E+00
(PID.TID 0000.0001) %MON g__extforcing_g_qnet_sd      =   0.0000000000000E+00
(PID.TID 0000.0001) %MON g__extforcing_g_qnet_del2    =   0.0000000000000E+00
(PID.TID 0000.0001) %MON g__extforcing_g_empmr_max    =   0.0000000000000E+00
(PID.TID 0000.0001) %MON g__extforcing_g_empmr_min    =   0.0000000000000E+00
(PID.TID 0000.0001) %MON g__extforcing_g_empmr_mean   =   0.0000000000000E+00
(PID.TID 0000.0001) %MON g__extforcing_g_empmr_sd     =   0.0000000000000E+00
(PID.TID 0000.0001) %MON g__extforcing_g_empmr_del2   =   0.0000000000000E+00
(PID.TID 0000.0001) %MON g__extforcing_g_fu_max       =   0.0000000000000E+00
(PID.TID 0000.0001) %MON g__extforcing_g_fu_min       =   0.0000000000000E+00
(PID.TID 0000.0001) %MON g__extforcing_g_fu_mean      =   0.0000000000000E+00
(PID.TID 0000.0001) %MON g__extforcing_g_fu_sd        =   0.0000000000000E+00
(PID.TID 0000.0001) %MON g__extforcing_g_fu_del2      =   0.0000000000000E+00
(PID.TID 0000.0001) %MON g__extforcing_g_fv_max       =   0.0000000000000E+00
(PID.TID 0000.0001) %MON g__extforcing_g_fv_min       =   0.0000000000000E+00
(PID.TID 0000.0001) %MON g__extforcing_g_fv_mean      =   0.0000000000000E+00
(PID.TID 0000.0001) %MON g__extforcing_g_fv_sd        =   0.0000000000000E+00
(PID.TID 0000.0001) %MON g__extforcing_g_fv_del2      =   0.0000000000000E+00
(PID.TID 0000.0001) %MON g__g_vcfl_g_uvel_max         =   5.4830873771853E-05
(PID.TID 0000.0001) %MON g__g_vcfl_g_vvel_max         =   3.9855246066678E-05
(PID.TID 0000.0001) %MON g__g_vcfl_g_wvel_max         =   6.7967466407230E-05
(PID.TID 0000.0001) %MON g__g_vcfl_g_W_hf_max         =   1.6312191937735E-04
(PID.TID 0000.0001) // =======================================================
(PID.TID 0000.0001) // End MONITOR dynamic field statistics
(PID.TID 0000.0001) // =======================================================
 cg2d: Sum(rhs),rhsMax =   5.66461638306071E-12  1.68463721462420E-02
 cg2d: Sum(rhs),rhsMax =   2.35764879841227E-12  1.37009641669028E+01
(PID.TID 0000.0001) // =======================================================
(PID.TID 0000.0001) // Begin MONITOR dynamic field statistics
(PID.TID 0000.0001) // =======================================================
(PID.TID 0000.0001) %MON g__time_tsnumber             =                    60
(PID.TID 0000.0001) %MON g__time_secondsf             =   2.5920000000000E+06
(PID.TID 0000.0001) %MON g__dynstat_g_eta_max         =   4.0085824438461E-03
(PID.TID 0000.0001) %MON g__dynstat_g_eta_min         =  -5.2198580137660E-05
(PID.TID 0000.0001) %MON g__dynstat_g_eta_mean        =  -6.1929890716517E-18
(PID.TID 0000.0001) %MON g__dynstat_g_eta_sd          =   5.1067555204746E-05
(PID.TID 0000.0001) %MON g__dynstat_g_eta_del2        =   2.5805638850759E-06
(PID.TID 0000.0001) %MON g__dynstat_g_uvel_max        =   3.6941042887329E-05
(PID.TID 0000.0001) %MON g__dynstat_g_uvel_min        =  -1.9116829149902E-04
(PID.TID 0000.0001) %MON g__dynstat_g_uvel_mean       =   2.9315186761383E-08
(PID.TID 0000.0001) %MON g__dynstat_g_uvel_sd         =   5.7029403277889E-07
(PID.TID 0000.0001) %MON g__dynstat_g_uvel_del2       =   5.5767011994918E-08
(PID.TID 0000.0001) %MON g__dynstat_g_vvel_max        =   3.9472206985162E-04
(PID.TID 0000.0001) %MON g__dynstat_g_vvel_min        =  -2.6071809925145E-04
(PID.TID 0000.0001) %MON g__dynstat_g_vvel_mean       =   2.5366696099860E-08
(PID.TID 0000.0001) %MON g__dynstat_g_vvel_sd         =   8.7000499185944E-07
(PID.TID 0000.0001) %MON g__dynstat_g_vvel_del2       =   6.0193496094227E-08
(PID.TID 0000.0001) %MON g__dynstat_g_wvel_max        =   1.1464285426663E-07
(PID.TID 0000.0001) %MON g__dynstat_g_wvel_min        =  -5.3432185463447E-08
(PID.TID 0000.0001) %MON g__dynstat_g_wvel_mean       =   4.9947025522950E-27
(PID.TID 0000.0001) %MON g__dynstat_g_wvel_sd         =   7.7813086345505E-10
(PID.TID 0000.0001) %MON g__dynstat_g_wvel_del2       =   1.1636355051652E-10
(PID.TID 0000.0001) %MON g__dynstat_g_theta_max       =   6.6487947338620E-01
(PID.TID 0000.0001) %MON g__dynstat_g_theta_min       =  -1.2685321157312E-03
(PID.TID 0000.0001) %MON g__dynstat_g_theta_mean      =   2.9756070195259E-06
(PID.TID 0000.0001) %MON g__dynstat_g_theta_sd        =   1.0397827383685E-03
(PID.TID 0000.0001) %MON g__dynstat_g_theta_del2      =   4.0882866245970E-05
(PID.TID 0000.0001) %MON g__dynstat_g_salt_max        =   7.5613829557178E-03
(PID.TID 0000.0001) %MON g__dynstat_g_salt_min        =  -1.2967169791786E-02
(PID.TID 0000.0001) %MON g__dynstat_g_salt_mean       =   2.6358353718055E-09
(PID.TID 0000.0001) %MON g__dynstat_g_salt_sd         =   2.3077686296233E-05
(PID.TID 0000.0001) %MON g__dynstat_g_salt_del2       =   1.4774081497573E-06
(PID.TID 0000.0001) %MON g__dynstat_g_sst_max         =   6.6487947338620E-01
(PID.TID 0000.0001) %MON g__dynstat_g_sst_min         =  -6.4842304688307E-05
(PID.TID 0000.0001) %MON g__dynstat_g_sst_mean        =   1.4114182254481E-04
(PID.TID 0000.0001) %MON g__dynstat_g_sst_sd          =   8.5180617738752E-03
(PID.TID 0000.0001) %MON g__dynstat_g_sst_del2        =   3.8718942079480E-04
(PID.TID 0000.0001) %MON g__dynstat_g_sss_max         =   7.5613829557178E-03
(PID.TID 0000.0001) %MON g__dynstat_g_sss_min         =  -1.2967169791786E-02
(PID.TID 0000.0001) %MON g__dynstat_g_sss_mean        =   1.0842029469224E-07
(PID.TID 0000.0001) %MON g__dynstat_g_sss_sd          =   1.9852845572764E-04
(PID.TID 0000.0001) %MON g__dynstat_g_sss_del2        =   1.5598998808324E-05
(PID.TID 0000.0001) %MON g__extforcing_g_qnet_max     =   0.0000000000000E+00
(PID.TID 0000.0001) %MON g__extforcing_g_qnet_min     =   0.0000000000000E+00
(PID.TID 0000.0001) %MON g__extforcing_g_qnet_mean    =   0.0000000000000E+00
(PID.TID 0000.0001) %MON g__extforcing_g_qnet_sd      =   0.0000000000000E+00
(PID.TID 0000.0001) %MON g__extforcing_g_qnet_del2    =   0.0000000000000E+00
(PID.TID 0000.0001) %MON g__extforcing_g_empmr_max    =   0.0000000000000E+00
(PID.TID 0000.0001) %MON g__extforcing_g_empmr_min    =   0.0000000000000E+00
(PID.TID 0000.0001) %MON g__extforcing_g_empmr_mean   =   0.0000000000000E+00
(PID.TID 0000.0001) %MON g__extforcing_g_empmr_sd     =   0.0000000000000E+00
(PID.TID 0000.0001) %MON g__extforcing_g_empmr_del2   =   0.0000000000000E+00
(PID.TID 0000.0001) %MON g__extforcing_g_fu_max       =   0.0000000000000E+00
(PID.TID 0000.0001) %MON g__extforcing_g_fu_min       =   0.0000000000000E+00
(PID.TID 0000.0001) %MON g__extforcing_g_fu_mean      =   0.0000000000000E+00
(PID.TID 0000.0001) %MON g__extforcing_g_fu_sd        =   0.0000000000000E+00
(PID.TID 0000.0001) %MON g__extforcing_g_fu_del2      =   0.0000000000000E+00
(PID.TID 0000.0001) %MON g__extforcing_g_fv_max       =   0.0000000000000E+00
(PID.TID 0000.0001) %MON g__extforcing_g_fv_min       =   0.0000000000000E+00
(PID.TID 0000.0001) %MON g__extforcing_g_fv_mean      =   0.0000000000000E+00
(PID.TID 0000.0001) %MON g__extforcing_g_fv_sd        =   0.0000000000000E+00
(PID.TID 0000.0001) %MON g__extforcing_g_fv_del2      =   0.0000000000000E+00
(PID.TID 0000.0001) %MON g__g_vcfl_g_uvel_max         =   5.4296411764420E-05
(PID.TID 0000.0001) %MON g__g_vcfl_g_vvel_max         =   3.8344083795635E-05
(PID.TID 0000.0001) %MON g__g_vcfl_g_wvel_max         =   6.7114871610398E-05
(PID.TID 0000.0001) %MON g__g_vcfl_g_W_hf_max         =   1.6107569186496E-04
(PID.TID 0000.0001) // =======================================================
(PID.TID 0000.0001) // End MONITOR dynamic field statistics
(PID.TID 0000.0001) // =======================================================
 myIter=  60
(PID.TID 0000.0001) // Model state written, timestep        60
(PID.TID 0000.0001) 
 cg2d: Sum(rhs),rhsMax =   5.77583519269453E-12  1.68784617777457E-02
 cg2d: Sum(rhs),rhsMax =   2.69472638647628E-12  1.37646539938082E+01
(PID.TID 0000.0001) // =======================================================
(PID.TID 0000.0001) // Begin MONITOR dynamic field statistics
(PID.TID 0000.0001) // =======================================================
(PID.TID 0000.0001) %MON g__time_tsnumber             =                    61
(PID.TID 0000.0001) %MON g__time_secondsf             =   2.6352000000000E+06
(PID.TID 0000.0001) %MON g__dynstat_g_eta_max         =   4.0205159654309E-03
(PID.TID 0000.0001) %MON g__dynstat_g_eta_min         =  -5.1292645698293E-05
(PID.TID 0000.0001) %MON g__dynstat_g_eta_mean        =  -6.3254759566314E-18
(PID.TID 0000.0001) %MON g__dynstat_g_eta_sd          =   5.1242245968951E-05
(PID.TID 0000.0001) %MON g__dynstat_g_eta_del2        =   2.5869839033555E-06
(PID.TID 0000.0001) %MON g__dynstat_g_uvel_max        =   3.8394160418293E-05
(PID.TID 0000.0001) %MON g__dynstat_g_uvel_min        =  -1.8853502434382E-04
(PID.TID 0000.0001) %MON g__dynstat_g_uvel_mean       =   2.6983341691838E-08
(PID.TID 0000.0001) %MON g__dynstat_g_uvel_sd         =   5.9083985852878E-07
(PID.TID 0000.0001) %MON g__dynstat_g_uvel_del2       =   5.6630361772070E-08
(PID.TID 0000.0001) %MON g__dynstat_g_vvel_max        =   3.7896730801765E-04
(PID.TID 0000.0001) %MON g__dynstat_g_vvel_min        =  -2.6574133918129E-04
(PID.TID 0000.0001) %MON g__dynstat_g_vvel_mean       =   2.5023477983114E-08
(PID.TID 0000.0001) %MON g__dynstat_g_vvel_sd         =   8.4830237756885E-07
(PID.TID 0000.0001) %MON g__dynstat_g_vvel_del2       =   5.9823008441905E-08
(PID.TID 0000.0001) %MON g__dynstat_g_wvel_max        =   1.1100120190413E-07
(PID.TID 0000.0001) %MON g__dynstat_g_wvel_min        =  -4.8867027908908E-08
(PID.TID 0000.0001) %MON g__dynstat_g_wvel_mean       =   1.1726403826967E-27
(PID.TID 0000.0001) %MON g__dynstat_g_wvel_sd         =   7.8323798045367E-10
(PID.TID 0000.0001) %MON g__dynstat_g_wvel_del2       =   1.1594091142505E-10
(PID.TID 0000.0001) %MON g__dynstat_g_theta_max       =   6.6017355827652E-01
(PID.TID 0000.0001) %MON g__dynstat_g_theta_min       =  -1.1900080195533E-03
(PID.TID 0000.0001) %MON g__dynstat_g_theta_mean      =   2.9847020844307E-06
(PID.TID 0000.0001) %MON g__dynstat_g_theta_sd        =   1.0350381913708E-03
(PID.TID 0000.0001) %MON g__dynstat_g_theta_del2      =   4.0700978355842E-05
(PID.TID 0000.0001) %MON g__dynstat_g_salt_max        =   7.6317830472430E-03
(PID.TID 0000.0001) %MON g__dynstat_g_salt_min        =  -1.3120320402359E-02
(PID.TID 0000.0001) %MON g__dynstat_g_salt_mean       =   2.6415835825384E-09
(PID.TID 0000.0001) %MON g__dynstat_g_salt_sd         =   2.3315081600643E-05
(PID.TID 0000.0001) %MON g__dynstat_g_salt_del2       =   1.4867798441438E-06
(PID.TID 0000.0001) %MON g__dynstat_g_sst_max         =   6.6017355827652E-01
(PID.TID 0000.0001) %MON g__dynstat_g_sst_min         =  -6.3583746436462E-05
(PID.TID 0000.0001) %MON g__dynstat_g_sst_mean        =   1.4060878532277E-04
(PID.TID 0000.0001) %MON g__dynstat_g_sst_sd          =   8.4622644414735E-03
(PID.TID 0000.0001) %MON g__dynstat_g_sst_del2        =   3.8389903969262E-04
(PID.TID 0000.0001) %MON g__dynstat_g_sss_max         =   7.6317830472430E-03
(PID.TID 0000.0001) %MON g__dynstat_g_sss_min         =  -1.3120320402359E-02
(PID.TID 0000.0001) %MON g__dynstat_g_sss_mean        =   1.0539031278110E-07
(PID.TID 0000.0001) %MON g__dynstat_g_sss_sd          =   2.0074770417762E-04
(PID.TID 0000.0001) %MON g__dynstat_g_sss_del2        =   1.5762132403070E-05
(PID.TID 0000.0001) %MON g__extforcing_g_qnet_max     =   0.0000000000000E+00
(PID.TID 0000.0001) %MON g__extforcing_g_qnet_min     =   0.0000000000000E+00
(PID.TID 0000.0001) %MON g__extforcing_g_qnet_mean    =   0.0000000000000E+00
(PID.TID 0000.0001) %MON g__extforcing_g_qnet_sd      =   0.0000000000000E+00
(PID.TID 0000.0001) %MON g__extforcing_g_qnet_del2    =   0.0000000000000E+00
(PID.TID 0000.0001) %MON g__extforcing_g_empmr_max    =   0.0000000000000E+00
(PID.TID 0000.0001) %MON g__extforcing_g_empmr_min    =   0.0000000000000E+00
(PID.TID 0000.0001) %MON g__extforcing_g_empmr_mean   =   0.0000000000000E+00
(PID.TID 0000.0001) %MON g__extforcing_g_empmr_sd     =   0.0000000000000E+00
(PID.TID 0000.0001) %MON g__extforcing_g_empmr_del2   =   0.0000000000000E+00
(PID.TID 0000.0001) %MON g__extforcing_g_fu_max       =   0.0000000000000E+00
(PID.TID 0000.0001) %MON g__extforcing_g_fu_min       =   0.0000000000000E+00
(PID.TID 0000.0001) %MON g__extforcing_g_fu_mean      =   0.0000000000000E+00
(PID.TID 0000.0001) %MON g__extforcing_g_fu_sd        =   0.0000000000000E+00
(PID.TID 0000.0001) %MON g__extforcing_g_fu_del2      =   0.0000000000000E+00
(PID.TID 0000.0001) %MON g__extforcing_g_fv_max       =   0.0000000000000E+00
(PID.TID 0000.0001) %MON g__extforcing_g_fv_min       =   0.0000000000000E+00
(PID.TID 0000.0001) %MON g__extforcing_g_fv_mean      =   0.0000000000000E+00
(PID.TID 0000.0001) %MON g__extforcing_g_fv_sd        =   0.0000000000000E+00
(PID.TID 0000.0001) %MON g__extforcing_g_fv_del2      =   0.0000000000000E+00
(PID.TID 0000.0001) %MON g__g_vcfl_g_uvel_max         =   6.1327721585572E-05
(PID.TID 0000.0001) %MON g__g_vcfl_g_vvel_max         =   3.6813635021465E-05
(PID.TID 0000.0001) %MON g__g_vcfl_g_wvel_max         =   6.5424351567003E-05
(PID.TID 0000.0001) %MON g__g_vcfl_g_W_hf_max         =   1.5701844376081E-04
(PID.TID 0000.0001) // =======================================================
(PID.TID 0000.0001) // End MONITOR dynamic field statistics
(PID.TID 0000.0001) // =======================================================
 cg2d: Sum(rhs),rhsMax =   5.88466043766091E-12  1.69227892074136E-02
 cg2d: Sum(rhs),rhsMax =   2.93461088762825E-12  1.36394324617495E+01
(PID.TID 0000.0001) // =======================================================
(PID.TID 0000.0001) // Begin MONITOR dynamic field statistics
(PID.TID 0000.0001) // =======================================================
(PID.TID 0000.0001) %MON g__time_tsnumber             =                    62
(PID.TID 0000.0001) %MON g__time_secondsf             =   2.6784000000000E+06
(PID.TID 0000.0001) %MON g__dynstat_g_eta_max         =   4.0359682968392E-03
(PID.TID 0000.0001) %MON g__dynstat_g_eta_min         =  -4.9781393948508E-05
(PID.TID 0000.0001) %MON g__dynstat_g_eta_mean        =  -6.4577324140748E-18
(PID.TID 0000.0001) %MON g__dynstat_g_eta_sd          =   5.1466629696158E-05
(PID.TID 0000.0001) %MON g__dynstat_g_eta_del2        =   2.5930867743532E-06
(PID.TID 0000.0001) %MON g__dynstat_g_uvel_max        =   3.9150751207868E-05
(PID.TID 0000.0001) %MON g__dynstat_g_uvel_min        =  -1.8870567484781E-04
(PID.TID 0000.0001) %MON g__dynstat_g_uvel_mean       =   2.5057130384660E-08
(PID.TID 0000.0001) %MON g__dynstat_g_uvel_sd         =   6.0882940504484E-07
(PID.TID 0000.0001) %MON g__dynstat_g_uvel_del2       =   5.7071278773263E-08
(PID.TID 0000.0001) %MON g__dynstat_g_vvel_max        =   3.6359619919302E-04
(PID.TID 0000.0001) %MON g__dynstat_g_vvel_min        =  -2.7106526102520E-04
(PID.TID 0000.0001) %MON g__dynstat_g_vvel_mean       =   2.4121070123798E-08
(PID.TID 0000.0001) %MON g__dynstat_g_vvel_sd         =   8.2879766669014E-07
(PID.TID 0000.0001) %MON g__dynstat_g_vvel_del2       =   5.9795465180684E-08
(PID.TID 0000.0001) %MON g__dynstat_g_wvel_max        =   1.0602783614285E-07
(PID.TID 0000.0001) %MON g__dynstat_g_wvel_min        =  -4.6254967682476E-08
(PID.TID 0000.0001) %MON g__dynstat_g_wvel_mean       =   4.4831926524857E-27
(PID.TID 0000.0001) %MON g__dynstat_g_wvel_sd         =   7.7754283787634E-10
(PID.TID 0000.0001) %MON g__dynstat_g_wvel_del2       =   1.1470189599407E-10
(PID.TID 0000.0001) %MON g__dynstat_g_theta_max       =   6.5559350850178E-01
(PID.TID 0000.0001) %MON g__dynstat_g_theta_min       =  -1.1055636613949E-03
(PID.TID 0000.0001) %MON g__dynstat_g_theta_mean      =   2.9946487090533E-06
(PID.TID 0000.0001) %MON g__dynstat_g_theta_sd        =   1.0305052578909E-03
(PID.TID 0000.0001) %MON g__dynstat_g_theta_del2      =   4.0524852264155E-05
(PID.TID 0000.0001) %MON g__dynstat_g_salt_max        =   7.6976837177301E-03
(PID.TID 0000.0001) %MON g__dynstat_g_salt_min        =  -1.3274754924174E-02
(PID.TID 0000.0001) %MON g__dynstat_g_salt_mean       =   2.5773844774823E-09
(PID.TID 0000.0001) %MON g__dynstat_g_salt_sd         =   2.3552260009622E-05
(PID.TID 0000.0001) %MON g__dynstat_g_salt_del2       =   1.4955945833879E-06
(PID.TID 0000.0001) %MON g__dynstat_g_sst_max         =   6.5559350850178E-01
(PID.TID 0000.0001) %MON g__dynstat_g_sst_min         =  -6.2779350851188E-05
(PID.TID 0000.0001) %MON g__dynstat_g_sst_mean        =   1.4010897707113E-04
(PID.TID 0000.0001) %MON g__dynstat_g_sst_sd          =   8.4080456004112E-03
(PID.TID 0000.0001) %MON g__dynstat_g_sst_del2        =   3.8068203112693E-04
(PID.TID 0000.0001) %MON g__dynstat_g_sss_max         =   7.6976837177301E-03
(PID.TID 0000.0001) %MON g__dynstat_g_sss_min         =  -1.3274754924174E-02
(PID.TID 0000.0001) %MON g__dynstat_g_sss_mean        =   1.0280594105182E-07
(PID.TID 0000.0001) %MON g__dynstat_g_sss_sd          =   2.0296320206547E-04
(PID.TID 0000.0001) %MON g__dynstat_g_sss_del2        =   1.5921590554353E-05
(PID.TID 0000.0001) %MON g__extforcing_g_qnet_max     =   0.0000000000000E+00
(PID.TID 0000.0001) %MON g__extforcing_g_qnet_min     =   0.0000000000000E+00
(PID.TID 0000.0001) %MON g__extforcing_g_qnet_mean    =   0.0000000000000E+00
(PID.TID 0000.0001) %MON g__extforcing_g_qnet_sd      =   0.0000000000000E+00
(PID.TID 0000.0001) %MON g__extforcing_g_qnet_del2    =   0.0000000000000E+00
(PID.TID 0000.0001) %MON g__extforcing_g_empmr_max    =   0.0000000000000E+00
(PID.TID 0000.0001) %MON g__extforcing_g_empmr_min    =   0.0000000000000E+00
(PID.TID 0000.0001) %MON g__extforcing_g_empmr_mean   =   0.0000000000000E+00
(PID.TID 0000.0001) %MON g__extforcing_g_empmr_sd     =   0.0000000000000E+00
(PID.TID 0000.0001) %MON g__extforcing_g_empmr_del2   =   0.0000000000000E+00
(PID.TID 0000.0001) %MON g__extforcing_g_fu_max       =   0.0000000000000E+00
(PID.TID 0000.0001) %MON g__extforcing_g_fu_min       =   0.0000000000000E+00
(PID.TID 0000.0001) %MON g__extforcing_g_fu_mean      =   0.0000000000000E+00
(PID.TID 0000.0001) %MON g__extforcing_g_fu_sd        =   0.0000000000000E+00
(PID.TID 0000.0001) %MON g__extforcing_g_fu_del2      =   0.0000000000000E+00
(PID.TID 0000.0001) %MON g__extforcing_g_fv_max       =   0.0000000000000E+00
(PID.TID 0000.0001) %MON g__extforcing_g_fv_min       =   0.0000000000000E+00
(PID.TID 0000.0001) %MON g__extforcing_g_fv_mean      =   0.0000000000000E+00
(PID.TID 0000.0001) %MON g__extforcing_g_fv_sd        =   0.0000000000000E+00
(PID.TID 0000.0001) %MON g__extforcing_g_fv_del2      =   0.0000000000000E+00
(PID.TID 0000.0001) %MON g__g_vcfl_g_uvel_max         =   6.6504930072154E-05
(PID.TID 0000.0001) %MON g__g_vcfl_g_vvel_max         =   3.5320455060626E-05
(PID.TID 0000.0001) %MON g__g_vcfl_g_wvel_max         =   6.3077000015938E-05
(PID.TID 0000.0001) %MON g__g_vcfl_g_W_hf_max         =   1.5138480003825E-04
(PID.TID 0000.0001) // =======================================================
(PID.TID 0000.0001) // End MONITOR dynamic field statistics
(PID.TID 0000.0001) // =======================================================
 cg2d: Sum(rhs),rhsMax =   5.98850520964661E-12  1.69682042783658E-02
 cg2d: Sum(rhs),rhsMax =   3.13017667341597E-12  1.33374540349375E+01
(PID.TID 0000.0001) // =======================================================
(PID.TID 0000.0001) // Begin MONITOR dynamic field statistics
(PID.TID 0000.0001) // =======================================================
(PID.TID 0000.0001) %MON g__time_tsnumber             =                    63
(PID.TID 0000.0001) %MON g__time_secondsf             =   2.7216000000000E+06
(PID.TID 0000.0001) %MON g__dynstat_g_eta_max         =   4.0522235927807E-03
(PID.TID 0000.0001) %MON g__dynstat_g_eta_min         =  -4.7740908021313E-05
(PID.TID 0000.0001) %MON g__dynstat_g_eta_mean        =  -6.5211536719368E-18
(PID.TID 0000.0001) %MON g__dynstat_g_eta_sd          =   5.1706443100980E-05
(PID.TID 0000.0001) %MON g__dynstat_g_eta_del2        =   2.5982423286865E-06
(PID.TID 0000.0001) %MON g__dynstat_g_uvel_max        =   3.9335504491066E-05
(PID.TID 0000.0001) %MON g__dynstat_g_uvel_min        =  -1.9799473505665E-04
(PID.TID 0000.0001) %MON g__dynstat_g_uvel_mean       =   2.3598421221074E-08
(PID.TID 0000.0001) %MON g__dynstat_g_uvel_sd         =   6.2186559580601E-07
(PID.TID 0000.0001) %MON g__dynstat_g_uvel_del2       =   5.7645170922261E-08
(PID.TID 0000.0001) %MON g__dynstat_g_vvel_max        =   3.4913652422174E-04
(PID.TID 0000.0001) %MON g__dynstat_g_vvel_min        =  -2.7650059379805E-04
(PID.TID 0000.0001) %MON g__dynstat_g_vvel_mean       =   2.2756150213772E-08
(PID.TID 0000.0001) %MON g__dynstat_g_vvel_sd         =   8.1216118750885E-07
(PID.TID 0000.0001) %MON g__dynstat_g_vvel_del2       =   5.9861048819612E-08
(PID.TID 0000.0001) %MON g__dynstat_g_wvel_max        =   1.0013869080088E-07
(PID.TID 0000.0001) %MON g__dynstat_g_wvel_min        =  -5.0597874368164E-08
(PID.TID 0000.0001) %MON g__dynstat_g_wvel_mean       =   4.1876263778439E-27
(PID.TID 0000.0001) %MON g__dynstat_g_wvel_sd         =   7.6105382680108E-10
(PID.TID 0000.0001) %MON g__dynstat_g_wvel_del2       =   1.1278919513982E-10
(PID.TID 0000.0001) %MON g__dynstat_g_theta_max       =   6.5094532981908E-01
(PID.TID 0000.0001) %MON g__dynstat_g_theta_min       =  -1.0203118296197E-03
(PID.TID 0000.0001) %MON g__dynstat_g_theta_mean      =   3.0040388913670E-06
(PID.TID 0000.0001) %MON g__dynstat_g_theta_sd        =   1.0258140741400E-03
(PID.TID 0000.0001) %MON g__dynstat_g_theta_del2      =   4.0337899189873E-05
(PID.TID 0000.0001) %MON g__dynstat_g_salt_max        =   7.7575761077011E-03
(PID.TID 0000.0001) %MON g__dynstat_g_salt_min        =  -1.3424068663332E-02
(PID.TID 0000.0001) %MON g__dynstat_g_salt_mean       =   2.4495736685581E-09
(PID.TID 0000.0001) %MON g__dynstat_g_salt_sd         =   2.3780141546142E-05
(PID.TID 0000.0001) %MON g__dynstat_g_salt_del2       =   1.5037274342680E-06
(PID.TID 0000.0001) %MON g__dynstat_g_sst_max         =   6.5094532981908E-01
(PID.TID 0000.0001) %MON g__dynstat_g_sst_min         =  -6.2467422911501E-05
(PID.TID 0000.0001) %MON g__dynstat_g_sst_mean        =   1.3960243814348E-04
(PID.TID 0000.0001) %MON g__dynstat_g_sst_sd          =   8.3529264223461E-03
(PID.TID 0000.0001) %MON g__dynstat_g_sst_del2        =   3.7743124601397E-04
(PID.TID 0000.0001) %MON g__dynstat_g_sss_max         =   7.7575761077011E-03
(PID.TID 0000.0001) %MON g__dynstat_g_sss_min         =  -1.3424068663332E-02
(PID.TID 0000.0001) %MON g__dynstat_g_sss_mean        =   1.0125414403373E-07
(PID.TID 0000.0001) %MON g__dynstat_g_sss_sd          =   2.0508600862880E-04
(PID.TID 0000.0001) %MON g__dynstat_g_sss_del2        =   1.6071571281779E-05
(PID.TID 0000.0001) %MON g__extforcing_g_qnet_max     =   0.0000000000000E+00
(PID.TID 0000.0001) %MON g__extforcing_g_qnet_min     =   0.0000000000000E+00
(PID.TID 0000.0001) %MON g__extforcing_g_qnet_mean    =   0.0000000000000E+00
(PID.TID 0000.0001) %MON g__extforcing_g_qnet_sd      =   0.0000000000000E+00
(PID.TID 0000.0001) %MON g__extforcing_g_qnet_del2    =   0.0000000000000E+00
(PID.TID 0000.0001) %MON g__extforcing_g_empmr_max    =   0.0000000000000E+00
(PID.TID 0000.0001) %MON g__extforcing_g_empmr_min    =   0.0000000000000E+00
(PID.TID 0000.0001) %MON g__extforcing_g_empmr_mean   =   0.0000000000000E+00
(PID.TID 0000.0001) %MON g__extforcing_g_empmr_sd     =   0.0000000000000E+00
(PID.TID 0000.0001) %MON g__extforcing_g_empmr_del2   =   0.0000000000000E+00
(PID.TID 0000.0001) %MON g__extforcing_g_fu_max       =   0.0000000000000E+00
(PID.TID 0000.0001) %MON g__extforcing_g_fu_min       =   0.0000000000000E+00
(PID.TID 0000.0001) %MON g__extforcing_g_fu_mean      =   0.0000000000000E+00
(PID.TID 0000.0001) %MON g__extforcing_g_fu_sd        =   0.0000000000000E+00
(PID.TID 0000.0001) %MON g__extforcing_g_fu_del2      =   0.0000000000000E+00
(PID.TID 0000.0001) %MON g__extforcing_g_fv_max       =   0.0000000000000E+00
(PID.TID 0000.0001) %MON g__extforcing_g_fv_min       =   0.0000000000000E+00
(PID.TID 0000.0001) %MON g__extforcing_g_fv_mean      =   0.0000000000000E+00
(PID.TID 0000.0001) %MON g__extforcing_g_fv_sd        =   0.0000000000000E+00
(PID.TID 0000.0001) %MON g__extforcing_g_fv_del2      =   0.0000000000000E+00
(PID.TID 0000.0001) %MON g__g_vcfl_g_uvel_max         =   6.9778643489216E-05
(PID.TID 0000.0001) %MON g__g_vcfl_g_vvel_max         =   3.3915813589818E-05
(PID.TID 0000.0001) %MON g__g_vcfl_g_wvel_max         =   6.0278678471624E-05
(PID.TID 0000.0001) %MON g__g_vcfl_g_W_hf_max         =   1.4466882833190E-04
(PID.TID 0000.0001) // =======================================================
(PID.TID 0000.0001) // End MONITOR dynamic field statistics
(PID.TID 0000.0001) // =======================================================
 cg2d: Sum(rhs),rhsMax =   6.03467394794545E-12  1.70039195592533E-02
 cg2d: Sum(rhs),rhsMax =   3.17794401905047E-12  1.28756214604386E+01
(PID.TID 0000.0001) // =======================================================
(PID.TID 0000.0001) // Begin MONITOR dynamic field statistics
(PID.TID 0000.0001) // =======================================================
(PID.TID 0000.0001) %MON g__time_tsnumber             =                    64
(PID.TID 0000.0001) %MON g__time_secondsf             =   2.7648000000000E+06
(PID.TID 0000.0001) %MON g__dynstat_g_eta_max         =   4.0666179363167E-03
(PID.TID 0000.0001) %MON g__dynstat_g_eta_min         =  -4.5248723647164E-05
(PID.TID 0000.0001) %MON g__dynstat_g_eta_mean        =  -6.5584119090687E-18
(PID.TID 0000.0001) %MON g__dynstat_g_eta_sd          =   5.1927738814789E-05
(PID.TID 0000.0001) %MON g__dynstat_g_eta_del2        =   2.6010350188695E-06
(PID.TID 0000.0001) %MON g__dynstat_g_uvel_max        =   3.9086039599467E-05
(PID.TID 0000.0001) %MON g__dynstat_g_uvel_min        =  -2.0227107102062E-04
(PID.TID 0000.0001) %MON g__dynstat_g_uvel_mean       =   2.2635375216557E-08
(PID.TID 0000.0001) %MON g__dynstat_g_uvel_sd         =   6.2868448534766E-07
(PID.TID 0000.0001) %MON g__dynstat_g_uvel_del2       =   5.7615937734699E-08
(PID.TID 0000.0001) %MON g__dynstat_g_vvel_max        =   3.3604143100354E-04
(PID.TID 0000.0001) %MON g__dynstat_g_vvel_min        =  -2.8184857085800E-04
(PID.TID 0000.0001) %MON g__dynstat_g_vvel_mean       =   2.1041126972269E-08
(PID.TID 0000.0001) %MON g__dynstat_g_vvel_sd         =   7.9880224242330E-07
(PID.TID 0000.0001) %MON g__dynstat_g_vvel_del2       =   6.0005991140270E-08
(PID.TID 0000.0001) %MON g__dynstat_g_wvel_max        =   9.3776138524500E-08
(PID.TID 0000.0001) %MON g__dynstat_g_wvel_min        =  -5.3378539578087E-08
(PID.TID 0000.0001) %MON g__dynstat_g_wvel_mean       =  -8.5099987778749E-28
(PID.TID 0000.0001) %MON g__dynstat_g_wvel_sd         =   7.3494469238523E-10
(PID.TID 0000.0001) %MON g__dynstat_g_wvel_del2       =   1.1068332860853E-10
(PID.TID 0000.0001) %MON g__dynstat_g_theta_max       =   6.4605878216646E-01
(PID.TID 0000.0001) %MON g__dynstat_g_theta_min       =  -9.3950810145009E-04
(PID.TID 0000.0001) %MON g__dynstat_g_theta_mean      =   3.0115703382101E-06
(PID.TID 0000.0001) %MON g__dynstat_g_theta_sd        =   1.0206344559856E-03
(PID.TID 0000.0001) %MON g__dynstat_g_theta_del2      =   4.0125766763432E-05
(PID.TID 0000.0001) %MON g__dynstat_g_salt_max        =   7.8102663212665E-03
(PID.TID 0000.0001) %MON g__dynstat_g_salt_min        =  -1.3562273611097E-02
(PID.TID 0000.0001) %MON g__dynstat_g_salt_mean       =   2.2694905424000E-09
(PID.TID 0000.0001) %MON g__dynstat_g_salt_sd         =   2.3990102378449E-05
(PID.TID 0000.0001) %MON g__dynstat_g_salt_del2       =   1.5113603716257E-06
(PID.TID 0000.0001) %MON g__dynstat_g_sst_max         =   6.4605878216646E-01
(PID.TID 0000.0001) %MON g__dynstat_g_sst_min         =  -6.2673100883273E-05
(PID.TID 0000.0001) %MON g__dynstat_g_sst_mean        =   1.3904320354958E-04
(PID.TID 0000.0001) %MON g__dynstat_g_sst_sd          =   8.2947289098109E-03
(PID.TID 0000.0001) %MON g__dynstat_g_sst_del2        =   3.7405690134350E-04
(PID.TID 0000.0001) %MON g__dynstat_g_sss_max         =   7.8102663212665E-03
(PID.TID 0000.0001) %MON g__dynstat_g_sss_min         =  -1.3562273611097E-02
(PID.TID 0000.0001) %MON g__dynstat_g_sss_mean        =   9.8466300671408E-08
(PID.TID 0000.0001) %MON g__dynstat_g_sss_sd          =   2.0703365557476E-04
(PID.TID 0000.0001) %MON g__dynstat_g_sss_del2        =   1.6209058320852E-05
(PID.TID 0000.0001) %MON g__extforcing_g_qnet_max     =   0.0000000000000E+00
(PID.TID 0000.0001) %MON g__extforcing_g_qnet_min     =   0.0000000000000E+00
(PID.TID 0000.0001) %MON g__extforcing_g_qnet_mean    =   0.0000000000000E+00
(PID.TID 0000.0001) %MON g__extforcing_g_qnet_sd      =   0.0000000000000E+00
(PID.TID 0000.0001) %MON g__extforcing_g_qnet_del2    =   0.0000000000000E+00
(PID.TID 0000.0001) %MON g__extforcing_g_empmr_max    =   0.0000000000000E+00
(PID.TID 0000.0001) %MON g__extforcing_g_empmr_min    =   0.0000000000000E+00
(PID.TID 0000.0001) %MON g__extforcing_g_empmr_mean   =   0.0000000000000E+00
(PID.TID 0000.0001) %MON g__extforcing_g_empmr_sd     =   0.0000000000000E+00
(PID.TID 0000.0001) %MON g__extforcing_g_empmr_del2   =   0.0000000000000E+00
(PID.TID 0000.0001) %MON g__extforcing_g_fu_max       =   0.0000000000000E+00
(PID.TID 0000.0001) %MON g__extforcing_g_fu_min       =   0.0000000000000E+00
(PID.TID 0000.0001) %MON g__extforcing_g_fu_mean      =   0.0000000000000E+00
(PID.TID 0000.0001) %MON g__extforcing_g_fu_sd        =   0.0000000000000E+00
(PID.TID 0000.0001) %MON g__extforcing_g_fu_del2      =   0.0000000000000E+00
(PID.TID 0000.0001) %MON g__extforcing_g_fv_max       =   0.0000000000000E+00
(PID.TID 0000.0001) %MON g__extforcing_g_fv_min       =   0.0000000000000E+00
(PID.TID 0000.0001) %MON g__extforcing_g_fv_mean      =   0.0000000000000E+00
(PID.TID 0000.0001) %MON g__extforcing_g_fv_sd        =   0.0000000000000E+00
(PID.TID 0000.0001) %MON g__extforcing_g_fv_del2      =   0.0000000000000E+00
(PID.TID 0000.0001) %MON g__g_vcfl_g_uvel_max         =   7.1285738728816E-05
(PID.TID 0000.0001) %MON g__g_vcfl_g_vvel_max         =   3.2643730293694E-05
(PID.TID 0000.0001) %MON g__g_vcfl_g_wvel_max         =   5.7246399683244E-05
(PID.TID 0000.0001) %MON g__g_vcfl_g_W_hf_max         =   1.3739135923978E-04
(PID.TID 0000.0001) // =======================================================
(PID.TID 0000.0001) // End MONITOR dynamic field statistics
(PID.TID 0000.0001) // =======================================================
 cg2d: Sum(rhs),rhsMax =   6.06646865010364E-12  1.70202916887436E-02
 cg2d: Sum(rhs),rhsMax =   3.29006960564371E-12  1.22747851031080E+01
(PID.TID 0000.0001) // =======================================================
(PID.TID 0000.0001) // Begin MONITOR dynamic field statistics
(PID.TID 0000.0001) // =======================================================
(PID.TID 0000.0001) %MON g__time_tsnumber             =                    65
(PID.TID 0000.0001) %MON g__time_secondsf             =   2.8080000000000E+06
(PID.TID 0000.0001) %MON g__dynstat_g_eta_max         =   4.0767225275547E-03
(PID.TID 0000.0001) %MON g__dynstat_g_eta_min         =  -4.2389008768404E-05
(PID.TID 0000.0001) %MON g__dynstat_g_eta_mean        =  -6.7264801671179E-18
(PID.TID 0000.0001) %MON g__dynstat_g_eta_sd          =   5.2099177964349E-05
(PID.TID 0000.0001) %MON g__dynstat_g_eta_del2        =   2.6002175844531E-06
(PID.TID 0000.0001) %MON g__dynstat_g_uvel_max        =   3.8538619765128E-05
(PID.TID 0000.0001) %MON g__dynstat_g_uvel_min        =  -2.0210786606591E-04
(PID.TID 0000.0001) %MON g__dynstat_g_uvel_mean       =   2.2160856389689E-08
(PID.TID 0000.0001) %MON g__dynstat_g_uvel_sd         =   6.2889831103156E-07
(PID.TID 0000.0001) %MON g__dynstat_g_uvel_del2       =   5.7052990996493E-08
(PID.TID 0000.0001) %MON g__dynstat_g_vvel_max        =   3.2467371527938E-04
(PID.TID 0000.0001) %MON g__dynstat_g_vvel_min        =  -2.8690777844227E-04
(PID.TID 0000.0001) %MON g__dynstat_g_vvel_mean       =   1.9096909732207E-08
(PID.TID 0000.0001) %MON g__dynstat_g_vvel_sd         =   7.8885641413456E-07
(PID.TID 0000.0001) %MON g__dynstat_g_vvel_del2       =   6.0138984664696E-08
(PID.TID 0000.0001) %MON g__dynstat_g_wvel_max        =   8.7383226598993E-08
(PID.TID 0000.0001) %MON g__dynstat_g_wvel_min        =  -5.4351306925118E-08
(PID.TID 0000.0001) %MON g__dynstat_g_wvel_mean       =   5.2433702114223E-27
(PID.TID 0000.0001) %MON g__dynstat_g_wvel_sd         =   7.0128207577534E-10
(PID.TID 0000.0001) %MON g__dynstat_g_wvel_del2       =   1.0849807182481E-10
(PID.TID 0000.0001) %MON g__dynstat_g_theta_max       =   6.4079946457378E-01
(PID.TID 0000.0001) %MON g__dynstat_g_theta_min       =  -8.6807988550141E-04
(PID.TID 0000.0001) %MON g__dynstat_g_theta_mean      =   3.0161467812145E-06
(PID.TID 0000.0001) %MON g__dynstat_g_theta_sd        =   1.0147007145389E-03
(PID.TID 0000.0001) %MON g__dynstat_g_theta_del2      =   3.9874736224588E-05
(PID.TID 0000.0001) %MON g__dynstat_g_salt_max        =   7.8549542077353E-03
(PID.TID 0000.0001) %MON g__dynstat_g_salt_min        =  -1.3684281328781E-02
(PID.TID 0000.0001) %MON g__dynstat_g_salt_mean       =   2.0530261700940E-09
(PID.TID 0000.0001) %MON g__dynstat_g_salt_sd         =   2.4174715759042E-05
(PID.TID 0000.0001) %MON g__dynstat_g_salt_del2       =   1.5181608218507E-06
(PID.TID 0000.0001) %MON g__dynstat_g_sst_max         =   6.4079946457378E-01
(PID.TID 0000.0001) %MON g__dynstat_g_sst_min         =  -6.3404485177532E-05
(PID.TID 0000.0001) %MON g__dynstat_g_sst_mean        =   1.3840843739721E-04
(PID.TID 0000.0001) %MON g__dynstat_g_sst_sd          =   8.2317303722034E-03
(PID.TID 0000.0001) %MON g__dynstat_g_sst_del2        =   3.7047040017781E-04
(PID.TID 0000.0001) %MON g__dynstat_g_sss_max         =   7.8549542077353E-03
(PID.TID 0000.0001) %MON g__dynstat_g_sss_min         =  -1.3684281328781E-02
(PID.TID 0000.0001) %MON g__dynstat_g_sss_mean        =   9.6480426259250E-08
(PID.TID 0000.0001) %MON g__dynstat_g_sss_sd          =   2.0873671239034E-04
(PID.TID 0000.0001) %MON g__dynstat_g_sss_del2        =   1.6326824335393E-05
(PID.TID 0000.0001) %MON g__extforcing_g_qnet_max     =   0.0000000000000E+00
(PID.TID 0000.0001) %MON g__extforcing_g_qnet_min     =   0.0000000000000E+00
(PID.TID 0000.0001) %MON g__extforcing_g_qnet_mean    =   0.0000000000000E+00
(PID.TID 0000.0001) %MON g__extforcing_g_qnet_sd      =   0.0000000000000E+00
(PID.TID 0000.0001) %MON g__extforcing_g_qnet_del2    =   0.0000000000000E+00
(PID.TID 0000.0001) %MON g__extforcing_g_empmr_max    =   0.0000000000000E+00
(PID.TID 0000.0001) %MON g__extforcing_g_empmr_min    =   0.0000000000000E+00
(PID.TID 0000.0001) %MON g__extforcing_g_empmr_mean   =   0.0000000000000E+00
(PID.TID 0000.0001) %MON g__extforcing_g_empmr_sd     =   0.0000000000000E+00
(PID.TID 0000.0001) %MON g__extforcing_g_empmr_del2   =   0.0000000000000E+00
(PID.TID 0000.0001) %MON g__extforcing_g_fu_max       =   0.0000000000000E+00
(PID.TID 0000.0001) %MON g__extforcing_g_fu_min       =   0.0000000000000E+00
(PID.TID 0000.0001) %MON g__extforcing_g_fu_mean      =   0.0000000000000E+00
(PID.TID 0000.0001) %MON g__extforcing_g_fu_sd        =   0.0000000000000E+00
(PID.TID 0000.0001) %MON g__extforcing_g_fu_del2      =   0.0000000000000E+00
(PID.TID 0000.0001) %MON g__extforcing_g_fv_max       =   0.0000000000000E+00
(PID.TID 0000.0001) %MON g__extforcing_g_fv_min       =   0.0000000000000E+00
(PID.TID 0000.0001) %MON g__extforcing_g_fv_mean      =   0.0000000000000E+00
(PID.TID 0000.0001) %MON g__extforcing_g_fv_sd        =   0.0000000000000E+00
(PID.TID 0000.0001) %MON g__extforcing_g_fv_del2      =   0.0000000000000E+00
(PID.TID 0000.0001) %MON g__g_vcfl_g_uvel_max         =   7.1228220934986E-05
(PID.TID 0000.0001) %MON g__g_vcfl_g_vvel_max         =   3.1539447869212E-05
(PID.TID 0000.0001) %MON g__g_vcfl_g_wvel_max         =   5.4196587695240E-05
(PID.TID 0000.0001) %MON g__g_vcfl_g_W_hf_max         =   1.3007181046857E-04
(PID.TID 0000.0001) // =======================================================
(PID.TID 0000.0001) // End MONITOR dynamic field statistics
(PID.TID 0000.0001) // =======================================================
 cg2d: Sum(rhs),rhsMax =   6.22381456865110E-12  1.70095068961548E-02
 cg2d: Sum(rhs),rhsMax =   3.17969955920816E-12  1.15588664150394E+01
(PID.TID 0000.0001) // =======================================================
(PID.TID 0000.0001) // Begin MONITOR dynamic field statistics
(PID.TID 0000.0001) // =======================================================
(PID.TID 0000.0001) %MON g__time_tsnumber             =                    66
(PID.TID 0000.0001) %MON g__time_secondsf             =   2.8512000000000E+06
(PID.TID 0000.0001) %MON g__dynstat_g_eta_max         =   4.0805094314986E-03
(PID.TID 0000.0001) %MON g__dynstat_g_eta_min         =  -3.9257096280488E-05
(PID.TID 0000.0001) %MON g__dynstat_g_eta_mean        =  -6.8813584997432E-18
(PID.TID 0000.0001) %MON g__dynstat_g_eta_sd          =   5.2194121667836E-05
(PID.TID 0000.0001) %MON g__dynstat_g_eta_del2        =   2.5945154292894E-06
(PID.TID 0000.0001) %MON g__dynstat_g_uvel_max        =   3.7814990977179E-05
(PID.TID 0000.0001) %MON g__dynstat_g_uvel_min        =  -1.9820667784404E-04
(PID.TID 0000.0001) %MON g__dynstat_g_uvel_mean       =   2.2133111450628E-08
(PID.TID 0000.0001) %MON g__dynstat_g_uvel_sd         =   6.2274332710485E-07
(PID.TID 0000.0001) %MON g__dynstat_g_uvel_del2       =   5.6206722107173E-08
(PID.TID 0000.0001) %MON g__dynstat_g_vvel_max        =   3.1529550107705E-04
(PID.TID 0000.0001) %MON g__dynstat_g_vvel_min        =  -2.9148194965551E-04
(PID.TID 0000.0001) %MON g__dynstat_g_vvel_mean       =   1.7045301302775E-08
(PID.TID 0000.0001) %MON g__dynstat_g_vvel_sd         =   7.8220305112058E-07
(PID.TID 0000.0001) %MON g__dynstat_g_vvel_del2       =   6.0337403700087E-08
(PID.TID 0000.0001) %MON g__dynstat_g_wvel_max        =   8.1380280270868E-08
(PID.TID 0000.0001) %MON g__dynstat_g_wvel_min        =  -5.6290672631921E-08
(PID.TID 0000.0001) %MON g__dynstat_g_wvel_mean       =  -1.0336769850099E-26
(PID.TID 0000.0001) %MON g__dynstat_g_wvel_sd         =   6.6278008926718E-10
(PID.TID 0000.0001) %MON g__dynstat_g_wvel_del2       =   1.0649623241912E-10
(PID.TID 0000.0001) %MON g__dynstat_g_theta_max       =   6.3507692638857E-01
(PID.TID 0000.0001) %MON g__dynstat_g_theta_min       =  -8.1017718319642E-04
(PID.TID 0000.0001) %MON g__dynstat_g_theta_mean      =   3.0169601165836E-06
(PID.TID 0000.0001) %MON g__dynstat_g_theta_sd        =   1.0078295241508E-03
(PID.TID 0000.0001) %MON g__dynstat_g_theta_del2      =   3.9577831076015E-05
(PID.TID 0000.0001) %MON g__dynstat_g_salt_max        =   7.8912764688271E-03
(PID.TID 0000.0001) %MON g__dynstat_g_salt_min        =  -1.3786287647258E-02
(PID.TID 0000.0001) %MON g__dynstat_g_salt_mean       =   1.8202323598159E-09
(PID.TID 0000.0001) %MON g__dynstat_g_salt_sd         =   2.4328388856879E-05
(PID.TID 0000.0001) %MON g__dynstat_g_salt_del2       =   1.5241743983657E-06
(PID.TID 0000.0001) %MON g__dynstat_g_sst_max         =   6.3507692638857E-01
(PID.TID 0000.0001) %MON g__dynstat_g_sst_min         =  -6.4648845182652E-05
(PID.TID 0000.0001) %MON g__dynstat_g_sst_mean        =   1.3766908145191E-04
(PID.TID 0000.0001) %MON g__dynstat_g_sst_sd          =   8.1627685036434E-03
(PID.TID 0000.0001) %MON g__dynstat_g_sst_del2        =   3.6663160096572E-04
(PID.TID 0000.0001) %MON g__dynstat_g_sss_max         =   7.8912764688271E-03
(PID.TID 0000.0001) %MON g__dynstat_g_sss_min         =  -1.3786287647258E-02
(PID.TID 0000.0001) %MON g__dynstat_g_sss_mean        =   9.4639408022649E-08
(PID.TID 0000.0001) %MON g__dynstat_g_sss_sd          =   2.1014405509293E-04
(PID.TID 0000.0001) %MON g__dynstat_g_sss_del2        =   1.6422959156646E-05
(PID.TID 0000.0001) %MON g__extforcing_g_qnet_max     =   0.0000000000000E+00
(PID.TID 0000.0001) %MON g__extforcing_g_qnet_min     =   0.0000000000000E+00
(PID.TID 0000.0001) %MON g__extforcing_g_qnet_mean    =   0.0000000000000E+00
(PID.TID 0000.0001) %MON g__extforcing_g_qnet_sd      =   0.0000000000000E+00
(PID.TID 0000.0001) %MON g__extforcing_g_qnet_del2    =   0.0000000000000E+00
(PID.TID 0000.0001) %MON g__extforcing_g_empmr_max    =   0.0000000000000E+00
(PID.TID 0000.0001) %MON g__extforcing_g_empmr_min    =   0.0000000000000E+00
(PID.TID 0000.0001) %MON g__extforcing_g_empmr_mean   =   0.0000000000000E+00
(PID.TID 0000.0001) %MON g__extforcing_g_empmr_sd     =   0.0000000000000E+00
(PID.TID 0000.0001) %MON g__extforcing_g_empmr_del2   =   0.0000000000000E+00
(PID.TID 0000.0001) %MON g__extforcing_g_fu_max       =   0.0000000000000E+00
(PID.TID 0000.0001) %MON g__extforcing_g_fu_min       =   0.0000000000000E+00
(PID.TID 0000.0001) %MON g__extforcing_g_fu_mean      =   0.0000000000000E+00
(PID.TID 0000.0001) %MON g__extforcing_g_fu_sd        =   0.0000000000000E+00
(PID.TID 0000.0001) %MON g__extforcing_g_fu_del2      =   0.0000000000000E+00
(PID.TID 0000.0001) %MON g__extforcing_g_fv_max       =   0.0000000000000E+00
(PID.TID 0000.0001) %MON g__extforcing_g_fv_min       =   0.0000000000000E+00
(PID.TID 0000.0001) %MON g__extforcing_g_fv_mean      =   0.0000000000000E+00
(PID.TID 0000.0001) %MON g__extforcing_g_fv_sd        =   0.0000000000000E+00
(PID.TID 0000.0001) %MON g__extforcing_g_fv_del2      =   0.0000000000000E+00
(PID.TID 0000.0001) %MON g__g_vcfl_g_uvel_max         =   6.9853337799633E-05
(PID.TID 0000.0001) %MON g__g_vcfl_g_vvel_max         =   3.0628429563692E-05
(PID.TID 0000.0001) %MON g__g_vcfl_g_wvel_max         =   5.1335176074950E-05
(PID.TID 0000.0001) %MON g__g_vcfl_g_W_hf_max         =   1.2320442257988E-04
(PID.TID 0000.0001) // =======================================================
(PID.TID 0000.0001) // End MONITOR dynamic field statistics
(PID.TID 0000.0001) // =======================================================
 cg2d: Sum(rhs),rhsMax =   6.38248971912737E-12  1.69661077352580E-02
 cg2d: Sum(rhs),rhsMax =   3.71438990676154E-12  1.07539403354916E+01
(PID.TID 0000.0001) // =======================================================
(PID.TID 0000.0001) // Begin MONITOR dynamic field statistics
(PID.TID 0000.0001) // =======================================================
(PID.TID 0000.0001) %MON g__time_tsnumber             =                    67
(PID.TID 0000.0001) %MON g__time_secondsf             =   2.8944000000000E+06
(PID.TID 0000.0001) %MON g__dynstat_g_eta_max         =   4.0764854189495E-03
(PID.TID 0000.0001) %MON g__dynstat_g_eta_min         =  -3.5962019833619E-05
(PID.TID 0000.0001) %MON g__dynstat_g_eta_mean        =  -6.9988264658215E-18
(PID.TID 0000.0001) %MON g__dynstat_g_eta_sd          =   5.2192344118501E-05
(PID.TID 0000.0001) %MON g__dynstat_g_eta_del2        =   2.5840998680855E-06
(PID.TID 0000.0001) %MON g__dynstat_g_uvel_max        =   3.7011734080325E-05
(PID.TID 0000.0001) %MON g__dynstat_g_uvel_min        =  -1.9133813747085E-04
(PID.TID 0000.0001) %MON g__dynstat_g_uvel_mean       =   2.2479355207712E-08
(PID.TID 0000.0001) %MON g__dynstat_g_uvel_sd         =   6.1086664159160E-07
(PID.TID 0000.0001) %MON g__dynstat_g_uvel_del2       =   5.5286558057043E-08
(PID.TID 0000.0001) %MON g__dynstat_g_vvel_max        =   3.0806387498879E-04
(PID.TID 0000.0001) %MON g__dynstat_g_vvel_min        =  -2.9538806339169E-04
(PID.TID 0000.0001) %MON g__dynstat_g_vvel_mean       =   1.5002057589447E-08
(PID.TID 0000.0001) %MON g__dynstat_g_vvel_sd         =   7.7850891886356E-07
(PID.TID 0000.0001) %MON g__dynstat_g_vvel_del2       =   6.0717459637932E-08
(PID.TID 0000.0001) %MON g__dynstat_g_wvel_max        =   7.6144181529873E-08
(PID.TID 0000.0001) %MON g__dynstat_g_wvel_min        =  -6.1406068344924E-08
(PID.TID 0000.0001) %MON g__dynstat_g_wvel_mean       =  -1.2123642100168E-27
(PID.TID 0000.0001) %MON g__dynstat_g_wvel_sd         =   6.2254679209685E-10
(PID.TID 0000.0001) %MON g__dynstat_g_wvel_del2       =   1.0446248886627E-10
(PID.TID 0000.0001) %MON g__dynstat_g_theta_max       =   6.2884840343676E-01
(PID.TID 0000.0001) %MON g__dynstat_g_theta_min       =  -7.6879766121764E-04
(PID.TID 0000.0001) %MON g__dynstat_g_theta_mean      =   3.0135317728018E-06
(PID.TID 0000.0001) %MON g__dynstat_g_theta_sd        =   9.9992946947301E-04
(PID.TID 0000.0001) %MON g__dynstat_g_theta_del2      =   3.9230684594942E-05
(PID.TID 0000.0001) %MON g__dynstat_g_salt_max        =   7.9193164780341E-03
(PID.TID 0000.0001) %MON g__dynstat_g_salt_min        =  -1.3866025885402E-02
(PID.TID 0000.0001) %MON g__dynstat_g_salt_mean       =   1.5924310498455E-09
(PID.TID 0000.0001) %MON g__dynstat_g_salt_sd         =   2.4447811500107E-05
(PID.TID 0000.0001) %MON g__dynstat_g_salt_del2       =   1.5293024488827E-06
(PID.TID 0000.0001) %MON g__dynstat_g_sst_max         =   6.2884840343676E-01
(PID.TID 0000.0001) %MON g__dynstat_g_sst_min         =  -6.6369849828597E-05
(PID.TID 0000.0001) %MON g__dynstat_g_sst_mean        =   1.3681417029041E-04
(PID.TID 0000.0001) %MON g__dynstat_g_sst_sd          =   8.0872897599648E-03
(PID.TID 0000.0001) %MON g__dynstat_g_sst_del2        =   3.6251269183354E-04
(PID.TID 0000.0001) %MON g__dynstat_g_sss_max         =   7.9193164780341E-03
(PID.TID 0000.0001) %MON g__dynstat_g_sss_min         =  -1.3866025885402E-02
(PID.TID 0000.0001) %MON g__dynstat_g_sss_mean        =   9.3170899711772E-08
(PID.TID 0000.0001) %MON g__dynstat_g_sss_sd          =   2.1122632001333E-04
(PID.TID 0000.0001) %MON g__dynstat_g_sss_del2        =   1.6495124233395E-05
(PID.TID 0000.0001) %MON g__extforcing_g_qnet_max     =   0.0000000000000E+00
(PID.TID 0000.0001) %MON g__extforcing_g_qnet_min     =   0.0000000000000E+00
(PID.TID 0000.0001) %MON g__extforcing_g_qnet_mean    =   0.0000000000000E+00
(PID.TID 0000.0001) %MON g__extforcing_g_qnet_sd      =   0.0000000000000E+00
(PID.TID 0000.0001) %MON g__extforcing_g_qnet_del2    =   0.0000000000000E+00
(PID.TID 0000.0001) %MON g__extforcing_g_empmr_max    =   0.0000000000000E+00
(PID.TID 0000.0001) %MON g__extforcing_g_empmr_min    =   0.0000000000000E+00
(PID.TID 0000.0001) %MON g__extforcing_g_empmr_mean   =   0.0000000000000E+00
(PID.TID 0000.0001) %MON g__extforcing_g_empmr_sd     =   0.0000000000000E+00
(PID.TID 0000.0001) %MON g__extforcing_g_empmr_del2   =   0.0000000000000E+00
(PID.TID 0000.0001) %MON g__extforcing_g_fu_max       =   0.0000000000000E+00
(PID.TID 0000.0001) %MON g__extforcing_g_fu_min       =   0.0000000000000E+00
(PID.TID 0000.0001) %MON g__extforcing_g_fu_mean      =   0.0000000000000E+00
(PID.TID 0000.0001) %MON g__extforcing_g_fu_sd        =   0.0000000000000E+00
(PID.TID 0000.0001) %MON g__extforcing_g_fu_del2      =   0.0000000000000E+00
(PID.TID 0000.0001) %MON g__extforcing_g_fv_max       =   0.0000000000000E+00
(PID.TID 0000.0001) %MON g__extforcing_g_fv_min       =   0.0000000000000E+00
(PID.TID 0000.0001) %MON g__extforcing_g_fv_mean      =   0.0000000000000E+00
(PID.TID 0000.0001) %MON g__extforcing_g_fv_sd        =   0.0000000000000E+00
(PID.TID 0000.0001) %MON g__extforcing_g_fv_del2      =   0.0000000000000E+00
(PID.TID 0000.0001) %MON g__g_vcfl_g_uvel_max         =   6.7432680352073E-05
(PID.TID 0000.0001) %MON g__g_vcfl_g_vvel_max         =   2.9925935079886E-05
(PID.TID 0000.0001) %MON g__g_vcfl_g_wvel_max         =   4.8849075277630E-05
(PID.TID 0000.0001) %MON g__g_vcfl_g_W_hf_max         =   1.1723778066631E-04
(PID.TID 0000.0001) // =======================================================
(PID.TID 0000.0001) // End MONITOR dynamic field statistics
(PID.TID 0000.0001) // =======================================================
 cg2d: Sum(rhs),rhsMax =   6.52387490129552E-12  1.68873102942897E-02
 cg2d: Sum(rhs),rhsMax =   3.27418647749766E-12  9.88730994742746E+00
(PID.TID 0000.0001) // =======================================================
(PID.TID 0000.0001) // Begin MONITOR dynamic field statistics
(PID.TID 0000.0001) // =======================================================
(PID.TID 0000.0001) %MON g__time_tsnumber             =                    68
(PID.TID 0000.0001) %MON g__time_secondsf             =   2.9376000000000E+06
(PID.TID 0000.0001) %MON g__dynstat_g_eta_max         =   4.0637813766408E-03
(PID.TID 0000.0001) %MON g__dynstat_g_eta_min         =  -3.2621652832632E-05
(PID.TID 0000.0001) %MON g__dynstat_g_eta_mean        =  -7.0853282108730E-18
(PID.TID 0000.0001) %MON g__dynstat_g_eta_sd          =   5.2081221088533E-05
(PID.TID 0000.0001) %MON g__dynstat_g_eta_del2        =   2.5678836920085E-06
(PID.TID 0000.0001) %MON g__dynstat_g_uvel_max        =   3.6193173765516E-05
(PID.TID 0000.0001) %MON g__dynstat_g_uvel_min        =  -1.8228456876150E-04
(PID.TID 0000.0001) %MON g__dynstat_g_uvel_mean       =   2.3101372990811E-08
(PID.TID 0000.0001) %MON g__dynstat_g_uvel_sd         =   5.9416169453129E-07
(PID.TID 0000.0001) %MON g__dynstat_g_uvel_del2       =   5.4355599840393E-08
(PID.TID 0000.0001) %MON g__dynstat_g_vvel_max        =   3.0303257309238E-04
(PID.TID 0000.0001) %MON g__dynstat_g_vvel_min        =  -2.9846403685472E-04
(PID.TID 0000.0001) %MON g__dynstat_g_vvel_mean       =   1.3070431826808E-08
(PID.TID 0000.0001) %MON g__dynstat_g_vvel_sd         =   7.7728754109542E-07
(PID.TID 0000.0001) %MON g__dynstat_g_vvel_del2       =   6.1128739036461E-08
(PID.TID 0000.0001) %MON g__dynstat_g_wvel_max        =   7.1990652123962E-08
(PID.TID 0000.0001) %MON g__dynstat_g_wvel_min        =  -6.6707853153783E-08
(PID.TID 0000.0001) %MON g__dynstat_g_wvel_mean       =   5.8502522957668E-27
(PID.TID 0000.0001) %MON g__dynstat_g_wvel_sd         =   5.8377555954545E-10
(PID.TID 0000.0001) %MON g__dynstat_g_wvel_del2       =   1.0227555773576E-10
(PID.TID 0000.0001) %MON g__dynstat_g_theta_max       =   6.2211824305582E-01
(PID.TID 0000.0001) %MON g__dynstat_g_theta_min       =  -7.4552901301557E-04
(PID.TID 0000.0001) %MON g__dynstat_g_theta_mean      =   3.0057314318815E-06
(PID.TID 0000.0001) %MON g__dynstat_g_theta_sd        =   9.9100187630263E-04
(PID.TID 0000.0001) %MON g__dynstat_g_theta_del2      =   3.8834068299863E-05
(PID.TID 0000.0001) %MON g__dynstat_g_salt_max        =   7.9395847498065E-03
(PID.TID 0000.0001) %MON g__dynstat_g_salt_min        =  -1.3922871042648E-02
(PID.TID 0000.0001) %MON g__dynstat_g_salt_mean       =   1.3909563653922E-09
(PID.TID 0000.0001) %MON g__dynstat_g_salt_sd         =   2.4532171212572E-05
(PID.TID 0000.0001) %MON g__dynstat_g_salt_del2       =   1.5336647075469E-06
(PID.TID 0000.0001) %MON g__dynstat_g_sst_max         =   6.2211824305582E-01
(PID.TID 0000.0001) %MON g__dynstat_g_sst_min         =  -6.8506627174526E-05
(PID.TID 0000.0001) %MON g__dynstat_g_sst_mean        =   1.3584088131401E-04
(PID.TID 0000.0001) %MON g__dynstat_g_sst_sd          =   8.0053431181671E-03
(PID.TID 0000.0001) %MON g__dynstat_g_sst_del2        =   3.5811917989157E-04
(PID.TID 0000.0001) %MON g__dynstat_g_sss_max         =   7.9395847498065E-03
(PID.TID 0000.0001) %MON g__dynstat_g_sss_min         =  -1.3922871042648E-02
(PID.TID 0000.0001) %MON g__dynstat_g_sss_mean        =   9.2270685994396E-08
(PID.TID 0000.0001) %MON g__dynstat_g_sss_sd          =   2.1197732800578E-04
(PID.TID 0000.0001) %MON g__dynstat_g_sss_del2        =   1.6543267968089E-05
(PID.TID 0000.0001) %MON g__extforcing_g_qnet_max     =   0.0000000000000E+00
(PID.TID 0000.0001) %MON g__extforcing_g_qnet_min     =   0.0000000000000E+00
(PID.TID 0000.0001) %MON g__extforcing_g_qnet_mean    =   0.0000000000000E+00
(PID.TID 0000.0001) %MON g__extforcing_g_qnet_sd      =   0.0000000000000E+00
(PID.TID 0000.0001) %MON g__extforcing_g_qnet_del2    =   0.0000000000000E+00
(PID.TID 0000.0001) %MON g__extforcing_g_empmr_max    =   0.0000000000000E+00
(PID.TID 0000.0001) %MON g__extforcing_g_empmr_min    =   0.0000000000000E+00
(PID.TID 0000.0001) %MON g__extforcing_g_empmr_mean   =   0.0000000000000E+00
(PID.TID 0000.0001) %MON g__extforcing_g_empmr_sd     =   0.0000000000000E+00
(PID.TID 0000.0001) %MON g__extforcing_g_empmr_del2   =   0.0000000000000E+00
(PID.TID 0000.0001) %MON g__extforcing_g_fu_max       =   0.0000000000000E+00
(PID.TID 0000.0001) %MON g__extforcing_g_fu_min       =   0.0000000000000E+00
(PID.TID 0000.0001) %MON g__extforcing_g_fu_mean      =   0.0000000000000E+00
(PID.TID 0000.0001) %MON g__extforcing_g_fu_sd        =   0.0000000000000E+00
(PID.TID 0000.0001) %MON g__extforcing_g_fu_del2      =   0.0000000000000E+00
(PID.TID 0000.0001) %MON g__extforcing_g_fv_max       =   0.0000000000000E+00
(PID.TID 0000.0001) %MON g__extforcing_g_fv_min       =   0.0000000000000E+00
(PID.TID 0000.0001) %MON g__extforcing_g_fv_mean      =   0.0000000000000E+00
(PID.TID 0000.0001) %MON g__extforcing_g_fv_sd        =   0.0000000000000E+00
(PID.TID 0000.0001) %MON g__extforcing_g_fv_del2      =   0.0000000000000E+00
(PID.TID 0000.0001) %MON g__g_vcfl_g_uvel_max         =   6.4241960441799E-05
(PID.TID 0000.0001) %MON g__g_vcfl_g_vvel_max         =   2.9437184446841E-05
(PID.TID 0000.0001) %MON g__g_vcfl_g_wvel_max         =   4.6898601633556E-05
(PID.TID 0000.0001) %MON g__g_vcfl_g_W_hf_max         =   1.1255664392053E-04
(PID.TID 0000.0001) // =======================================================
(PID.TID 0000.0001) // End MONITOR dynamic field statistics
(PID.TID 0000.0001) // =======================================================
 cg2d: Sum(rhs),rhsMax =   6.64844335319938E-12  1.67730838050504E-02
 cg2d: Sum(rhs),rhsMax =   3.25178078908195E-12  8.98660434991350E+00
(PID.TID 0000.0001) // =======================================================
(PID.TID 0000.0001) // Begin MONITOR dynamic field statistics
(PID.TID 0000.0001) // =======================================================
(PID.TID 0000.0001) %MON g__time_tsnumber             =                    69
(PID.TID 0000.0001) %MON g__time_secondsf             =   2.9808000000000E+06
(PID.TID 0000.0001) %MON g__dynstat_g_eta_max         =   4.0421890881773E-03
(PID.TID 0000.0001) %MON g__dynstat_g_eta_min         =  -2.9363516121382E-05
(PID.TID 0000.0001) %MON g__dynstat_g_eta_mean        =  -7.1406831777732E-18
(PID.TID 0000.0001) %MON g__dynstat_g_eta_sd          =   5.1856298140147E-05
(PID.TID 0000.0001) %MON g__dynstat_g_eta_del2        =   2.5460208909482E-06
(PID.TID 0000.0001) %MON g__dynstat_g_uvel_max        =   3.5388440935776E-05
(PID.TID 0000.0001) %MON g__dynstat_g_uvel_min        =  -1.7178892852943E-04
(PID.TID 0000.0001) %MON g__dynstat_g_uvel_mean       =   2.3883010320215E-08
(PID.TID 0000.0001) %MON g__dynstat_g_uvel_sd         =   5.7365244784535E-07
(PID.TID 0000.0001) %MON g__dynstat_g_uvel_del2       =   5.3303560376950E-08
(PID.TID 0000.0001) %MON g__dynstat_g_vvel_max        =   3.0015931168807E-04
(PID.TID 0000.0001) %MON g__dynstat_g_vvel_min        =  -3.0057531408379E-04
(PID.TID 0000.0001) %MON g__dynstat_g_vvel_mean       =   1.1335953371005E-08
(PID.TID 0000.0001) %MON g__dynstat_g_vvel_sd         =   7.7796335772087E-07
(PID.TID 0000.0001) %MON g__dynstat_g_vvel_del2       =   6.1676138492109E-08
(PID.TID 0000.0001) %MON g__dynstat_g_wvel_max        =   6.9159791563406E-08
(PID.TID 0000.0001) %MON g__dynstat_g_wvel_min        =  -7.1800276955842E-08
(PID.TID 0000.0001) %MON g__dynstat_g_wvel_mean       =  -3.4254363783161E-27
(PID.TID 0000.0001) %MON g__dynstat_g_wvel_sd         =   5.4937967656108E-10
(PID.TID 0000.0001) %MON g__dynstat_g_wvel_del2       =   1.0016269425317E-10
(PID.TID 0000.0001) %MON g__dynstat_g_theta_max       =   6.1493356765090E-01
(PID.TID 0000.0001) %MON g__dynstat_g_theta_min       =  -7.4043445879677E-04
(PID.TID 0000.0001) %MON g__dynstat_g_theta_mean      =   2.9937588997727E-06
(PID.TID 0000.0001) %MON g__dynstat_g_theta_sd        =   9.8113365725622E-04
(PID.TID 0000.0001) %MON g__dynstat_g_theta_del2      =   3.8392688952741E-05
(PID.TID 0000.0001) %MON g__dynstat_g_salt_max        =   7.9529805672523E-03
(PID.TID 0000.0001) %MON g__dynstat_g_salt_min        =  -1.3957797445502E-02
(PID.TID 0000.0001) %MON g__dynstat_g_salt_mean       =   1.2352607927813E-09
(PID.TID 0000.0001) %MON g__dynstat_g_salt_sd         =   2.4583123756091E-05
(PID.TID 0000.0001) %MON g__dynstat_g_salt_del2       =   1.5373167483550E-06
(PID.TID 0000.0001) %MON g__dynstat_g_sst_max         =   6.1493356765090E-01
(PID.TID 0000.0001) %MON g__dynstat_g_sst_min         =  -7.0975705669781E-05
(PID.TID 0000.0001) %MON g__dynstat_g_sst_mean        =   1.3475628736003E-04
(PID.TID 0000.0001) %MON g__dynstat_g_sst_sd          =   7.9175252990992E-03
(PID.TID 0000.0001) %MON g__dynstat_g_sst_del2        =   3.5348017133499E-04
(PID.TID 0000.0001) %MON g__dynstat_g_sss_max         =   7.9529805672523E-03
(PID.TID 0000.0001) %MON g__dynstat_g_sss_min         =  -1.3957797445502E-02
(PID.TID 0000.0001) %MON g__dynstat_g_sss_mean        =   9.1896258427307E-08
(PID.TID 0000.0001) %MON g__dynstat_g_sss_sd          =   2.1241349981635E-04
(PID.TID 0000.0001) %MON g__dynstat_g_sss_del2        =   1.6569019029244E-05
(PID.TID 0000.0001) %MON g__extforcing_g_qnet_max     =   0.0000000000000E+00
(PID.TID 0000.0001) %MON g__extforcing_g_qnet_min     =   0.0000000000000E+00
(PID.TID 0000.0001) %MON g__extforcing_g_qnet_mean    =   0.0000000000000E+00
(PID.TID 0000.0001) %MON g__extforcing_g_qnet_sd      =   0.0000000000000E+00
(PID.TID 0000.0001) %MON g__extforcing_g_qnet_del2    =   0.0000000000000E+00
(PID.TID 0000.0001) %MON g__extforcing_g_empmr_max    =   0.0000000000000E+00
(PID.TID 0000.0001) %MON g__extforcing_g_empmr_min    =   0.0000000000000E+00
(PID.TID 0000.0001) %MON g__extforcing_g_empmr_mean   =   0.0000000000000E+00
(PID.TID 0000.0001) %MON g__extforcing_g_empmr_sd     =   0.0000000000000E+00
(PID.TID 0000.0001) %MON g__extforcing_g_empmr_del2   =   0.0000000000000E+00
(PID.TID 0000.0001) %MON g__extforcing_g_fu_max       =   0.0000000000000E+00
(PID.TID 0000.0001) %MON g__extforcing_g_fu_min       =   0.0000000000000E+00
(PID.TID 0000.0001) %MON g__extforcing_g_fu_mean      =   0.0000000000000E+00
(PID.TID 0000.0001) %MON g__extforcing_g_fu_sd        =   0.0000000000000E+00
(PID.TID 0000.0001) %MON g__extforcing_g_fu_del2      =   0.0000000000000E+00
(PID.TID 0000.0001) %MON g__extforcing_g_fv_max       =   0.0000000000000E+00
(PID.TID 0000.0001) %MON g__extforcing_g_fv_min       =   0.0000000000000E+00
(PID.TID 0000.0001) %MON g__extforcing_g_fv_mean      =   0.0000000000000E+00
(PID.TID 0000.0001) %MON g__extforcing_g_fv_sd        =   0.0000000000000E+00
(PID.TID 0000.0001) %MON g__extforcing_g_fv_del2      =   0.0000000000000E+00
(PID.TID 0000.0001) %MON g__g_vcfl_g_uvel_max         =   6.0543015933324E-05
(PID.TID 0000.0001) %MON g__g_vcfl_g_vvel_max         =   2.9198481439005E-05
(PID.TID 0000.0001) %MON g__g_vcfl_g_wvel_max         =   4.6126053627446E-05
(PID.TID 0000.0001) %MON g__g_vcfl_g_W_hf_max         =   1.1070252870587E-04
(PID.TID 0000.0001) // =======================================================
(PID.TID 0000.0001) // End MONITOR dynamic field statistics
(PID.TID 0000.0001) // =======================================================
 cg2d: Sum(rhs),rhsMax =   6.76056543939588E-12  1.66259954509668E-02
 cg2d: Sum(rhs),rhsMax =   3.44625716852676E-12  8.07892755116576E+00
(PID.TID 0000.0001) // =======================================================
(PID.TID 0000.0001) // Begin MONITOR dynamic field statistics
(PID.TID 0000.0001) // =======================================================
(PID.TID 0000.0001) %MON g__time_tsnumber             =                    70
(PID.TID 0000.0001) %MON g__time_secondsf             =   3.0240000000000E+06
(PID.TID 0000.0001) %MON g__dynstat_g_eta_max         =   4.0121435306449E-03
(PID.TID 0000.0001) %MON g__dynstat_g_eta_min         =  -2.6310453411803E-05
(PID.TID 0000.0001) %MON g__dynstat_g_eta_mean        =  -7.1751894281215E-18
(PID.TID 0000.0001) %MON g__dynstat_g_eta_sd          =   5.1521216628854E-05
(PID.TID 0000.0001) %MON g__dynstat_g_eta_del2        =   2.5196928822474E-06
(PID.TID 0000.0001) %MON g__dynstat_g_uvel_max        =   3.4592719474319E-05
(PID.TID 0000.0001) %MON g__dynstat_g_uvel_min        =  -1.6051351424481E-04
(PID.TID 0000.0001) %MON g__dynstat_g_uvel_mean       =   2.4698890446142E-08
(PID.TID 0000.0001) %MON g__dynstat_g_uvel_sd         =   5.5042181619051E-07
(PID.TID 0000.0001) %MON g__dynstat_g_uvel_del2       =   5.2219098019540E-08
(PID.TID 0000.0001) %MON g__dynstat_g_vvel_max        =   2.9931785908232E-04
(PID.TID 0000.0001) %MON g__dynstat_g_vvel_min        =  -3.0161976932626E-04
(PID.TID 0000.0001) %MON g__dynstat_g_vvel_mean       =   9.8627526755207E-09
(PID.TID 0000.0001) %MON g__dynstat_g_vvel_sd         =   7.7993036347972E-07
(PID.TID 0000.0001) %MON g__dynstat_g_vvel_del2       =   6.2192684701277E-08
(PID.TID 0000.0001) %MON g__dynstat_g_wvel_max        =   6.7805186491104E-08
(PID.TID 0000.0001) %MON g__dynstat_g_wvel_min        =  -7.6337903640944E-08
(PID.TID 0000.0001) %MON g__dynstat_g_wvel_mean       =   3.4445983126401E-27
(PID.TID 0000.0001) %MON g__dynstat_g_wvel_sd         =   5.2155068924972E-10
(PID.TID 0000.0001) %MON g__dynstat_g_wvel_del2       =   9.8548121293218E-11
(PID.TID 0000.0001) %MON g__dynstat_g_theta_max       =   6.0737689673114E-01
(PID.TID 0000.0001) %MON g__dynstat_g_theta_min       =  -7.5208731429089E-04
(PID.TID 0000.0001) %MON g__dynstat_g_theta_mean      =   2.9781030268968E-06
(PID.TID 0000.0001) %MON g__dynstat_g_theta_sd        =   9.7048346277159E-04
(PID.TID 0000.0001) %MON g__dynstat_g_theta_del2      =   3.7914963293763E-05
(PID.TID 0000.0001) %MON g__dynstat_g_salt_max        =   7.9607266818992E-03
(PID.TID 0000.0001) %MON g__dynstat_g_salt_min        =  -1.3973203408170E-02
(PID.TID 0000.0001) %MON g__dynstat_g_salt_mean       =   1.1414692251971E-09
(PID.TID 0000.0001) %MON g__dynstat_g_salt_sd         =   2.4604526188027E-05
(PID.TID 0000.0001) %MON g__dynstat_g_salt_del2       =   1.5402885880758E-06
(PID.TID 0000.0001) %MON g__dynstat_g_sst_max         =   6.0737689673114E-01
(PID.TID 0000.0001) %MON g__dynstat_g_sst_min         =  -7.3675124030668E-05
(PID.TID 0000.0001) %MON g__dynstat_g_sst_mean        =   1.3357483294042E-04
(PID.TID 0000.0001) %MON g__dynstat_g_sst_sd          =   7.8248868214169E-03
(PID.TID 0000.0001) %MON g__dynstat_g_sst_del2        =   3.4864582772913E-04
(PID.TID 0000.0001) %MON g__dynstat_g_sss_max         =   7.9607266818992E-03
(PID.TID 0000.0001) %MON g__dynstat_g_sss_min         =  -1.3973203408170E-02
(PID.TID 0000.0001) %MON g__dynstat_g_sss_mean        =   9.2093899221678E-08
(PID.TID 0000.0001) %MON g__dynstat_g_sss_sd          =   2.1257136076011E-04
(PID.TID 0000.0001) %MON g__dynstat_g_sss_del2        =   1.6575234982659E-05
(PID.TID 0000.0001) %MON g__extforcing_g_qnet_max     =   0.0000000000000E+00
(PID.TID 0000.0001) %MON g__extforcing_g_qnet_min     =   0.0000000000000E+00
(PID.TID 0000.0001) %MON g__extforcing_g_qnet_mean    =   0.0000000000000E+00
(PID.TID 0000.0001) %MON g__extforcing_g_qnet_sd      =   0.0000000000000E+00
(PID.TID 0000.0001) %MON g__extforcing_g_qnet_del2    =   0.0000000000000E+00
(PID.TID 0000.0001) %MON g__extforcing_g_empmr_max    =   0.0000000000000E+00
(PID.TID 0000.0001) %MON g__extforcing_g_empmr_min    =   0.0000000000000E+00
(PID.TID 0000.0001) %MON g__extforcing_g_empmr_mean   =   0.0000000000000E+00
(PID.TID 0000.0001) %MON g__extforcing_g_empmr_sd     =   0.0000000000000E+00
(PID.TID 0000.0001) %MON g__extforcing_g_empmr_del2   =   0.0000000000000E+00
(PID.TID 0000.0001) %MON g__extforcing_g_fu_max       =   0.0000000000000E+00
(PID.TID 0000.0001) %MON g__extforcing_g_fu_min       =   0.0000000000000E+00
(PID.TID 0000.0001) %MON g__extforcing_g_fu_mean      =   0.0000000000000E+00
(PID.TID 0000.0001) %MON g__extforcing_g_fu_sd        =   0.0000000000000E+00
(PID.TID 0000.0001) %MON g__extforcing_g_fu_del2      =   0.0000000000000E+00
(PID.TID 0000.0001) %MON g__extforcing_g_fv_max       =   0.0000000000000E+00
(PID.TID 0000.0001) %MON g__extforcing_g_fv_min       =   0.0000000000000E+00
(PID.TID 0000.0001) %MON g__extforcing_g_fv_mean      =   0.0000000000000E+00
(PID.TID 0000.0001) %MON g__extforcing_g_fv_sd        =   0.0000000000000E+00
(PID.TID 0000.0001) %MON g__extforcing_g_fv_del2      =   0.0000000000000E+00
(PID.TID 0000.0001) %MON g__g_vcfl_g_uvel_max         =   5.6569258179948E-05
(PID.TID 0000.0001) %MON g__g_vcfl_g_vvel_max         =   2.9299941890287E-05
(PID.TID 0000.0001) %MON g__g_vcfl_g_wvel_max         =   4.9034967315306E-05
(PID.TID 0000.0001) %MON g__g_vcfl_g_W_hf_max         =   1.1768392155673E-04
(PID.TID 0000.0001) // =======================================================
(PID.TID 0000.0001) // End MONITOR dynamic field statistics
(PID.TID 0000.0001) // =======================================================
 myIter=  70
(PID.TID 0000.0001) // Model state written, timestep        70
(PID.TID 0000.0001) 
 cg2d: Sum(rhs),rhsMax =   6.86411843276640E-12  1.64508472896975E-02
 cg2d: Sum(rhs),rhsMax =   3.52166906747442E-12  7.98205113094410E+00
(PID.TID 0000.0001) // =======================================================
(PID.TID 0000.0001) // Begin MONITOR dynamic field statistics
(PID.TID 0000.0001) // =======================================================
(PID.TID 0000.0001) %MON g__time_tsnumber             =                    71
(PID.TID 0000.0001) %MON g__time_secondsf             =   3.0672000000000E+06
(PID.TID 0000.0001) %MON g__dynstat_g_eta_max         =   3.9746544393139E-03
(PID.TID 0000.0001) %MON g__dynstat_g_eta_min         =  -2.3570781446974E-05
(PID.TID 0000.0001) %MON g__dynstat_g_eta_mean        =  -7.2048857422916E-18
(PID.TID 0000.0001) %MON g__dynstat_g_eta_sd          =   5.1087035502315E-05
(PID.TID 0000.0001) %MON g__dynstat_g_eta_del2        =   2.4905915147830E-06
(PID.TID 0000.0001) %MON g__dynstat_g_uvel_max        =   3.3772366721280E-05
(PID.TID 0000.0001) %MON g__dynstat_g_uvel_min        =  -1.5031184720607E-04
(PID.TID 0000.0001) %MON g__dynstat_g_uvel_mean       =   2.5423670258671E-08
(PID.TID 0000.0001) %MON g__dynstat_g_uvel_sd         =   5.2557565322834E-07
(PID.TID 0000.0001) %MON g__dynstat_g_uvel_del2       =   5.1215221048282E-08
(PID.TID 0000.0001) %MON g__dynstat_g_vvel_max        =   3.0031360700941E-04
(PID.TID 0000.0001) %MON g__dynstat_g_vvel_min        =  -3.0153055082410E-04
(PID.TID 0000.0001) %MON g__dynstat_g_vvel_mean       =   8.6913433113132E-09
(PID.TID 0000.0001) %MON g__dynstat_g_vvel_sd         =   7.8260050556609E-07
(PID.TID 0000.0001) %MON g__dynstat_g_vvel_del2       =   6.2601372955048E-08
(PID.TID 0000.0001) %MON g__dynstat_g_wvel_max        =   6.7987849019712E-08
(PID.TID 0000.0001) %MON g__dynstat_g_wvel_min        =  -8.0039874927504E-08
(PID.TID 0000.0001) %MON g__dynstat_g_wvel_mean       =   8.6843373812568E-28
(PID.TID 0000.0001) %MON g__dynstat_g_wvel_sd         =   5.0138541835266E-10
(PID.TID 0000.0001) %MON g__dynstat_g_wvel_del2       =   9.7464507227021E-11
(PID.TID 0000.0001) %MON g__dynstat_g_theta_max       =   5.9955667743987E-01
(PID.TID 0000.0001) %MON g__dynstat_g_theta_min       =  -7.7774161748691E-04
(PID.TID 0000.0001) %MON g__dynstat_g_theta_mean      =   2.9594744354177E-06
(PID.TID 0000.0001) %MON g__dynstat_g_theta_sd        =   9.5926311556120E-04
(PID.TID 0000.0001) %MON g__dynstat_g_theta_del2      =   3.7410799299247E-05
(PID.TID 0000.0001) %MON g__dynstat_g_salt_max        =   7.9642903022796E-03
(PID.TID 0000.0001) %MON g__dynstat_g_salt_min        =  -1.3972630417866E-02
(PID.TID 0000.0001) %MON g__dynstat_g_salt_mean       =   1.1206317719239E-09
(PID.TID 0000.0001) %MON g__dynstat_g_salt_sd         =   2.4601986997441E-05
(PID.TID 0000.0001) %MON g__dynstat_g_salt_del2       =   1.5426546275825E-06
(PID.TID 0000.0001) %MON g__dynstat_g_sst_max         =   5.9955667743987E-01
(PID.TID 0000.0001) %MON g__dynstat_g_sst_min         =  -7.6491267925977E-05
(PID.TID 0000.0001) %MON g__dynstat_g_sst_mean        =   1.3231773730112E-04
(PID.TID 0000.0001) %MON g__dynstat_g_sst_sd          =   7.7288110240939E-03
(PID.TID 0000.0001) %MON g__dynstat_g_sst_del2        =   3.4367611402275E-04
(PID.TID 0000.0001) %MON g__dynstat_g_sss_max         =   7.9642903022796E-03
(PID.TID 0000.0001) %MON g__dynstat_g_sss_min         =  -1.3972630417866E-02
(PID.TID 0000.0001) %MON g__dynstat_g_sss_mean        =   9.3026742032314E-08
(PID.TID 0000.0001) %MON g__dynstat_g_sss_sd          =   2.1250356484050E-04
(PID.TID 0000.0001) %MON g__dynstat_g_sss_del2        =   1.6565722478125E-05
(PID.TID 0000.0001) %MON g__extforcing_g_qnet_max     =   0.0000000000000E+00
(PID.TID 0000.0001) %MON g__extforcing_g_qnet_min     =   0.0000000000000E+00
(PID.TID 0000.0001) %MON g__extforcing_g_qnet_mean    =   0.0000000000000E+00
(PID.TID 0000.0001) %MON g__extforcing_g_qnet_sd      =   0.0000000000000E+00
(PID.TID 0000.0001) %MON g__extforcing_g_qnet_del2    =   0.0000000000000E+00
(PID.TID 0000.0001) %MON g__extforcing_g_empmr_max    =   0.0000000000000E+00
(PID.TID 0000.0001) %MON g__extforcing_g_empmr_min    =   0.0000000000000E+00
(PID.TID 0000.0001) %MON g__extforcing_g_empmr_mean   =   0.0000000000000E+00
(PID.TID 0000.0001) %MON g__extforcing_g_empmr_sd     =   0.0000000000000E+00
(PID.TID 0000.0001) %MON g__extforcing_g_empmr_del2   =   0.0000000000000E+00
(PID.TID 0000.0001) %MON g__extforcing_g_fu_max       =   0.0000000000000E+00
(PID.TID 0000.0001) %MON g__extforcing_g_fu_min       =   0.0000000000000E+00
(PID.TID 0000.0001) %MON g__extforcing_g_fu_mean      =   0.0000000000000E+00
(PID.TID 0000.0001) %MON g__extforcing_g_fu_sd        =   0.0000000000000E+00
(PID.TID 0000.0001) %MON g__extforcing_g_fu_del2      =   0.0000000000000E+00
(PID.TID 0000.0001) %MON g__extforcing_g_fv_max       =   0.0000000000000E+00
(PID.TID 0000.0001) %MON g__extforcing_g_fv_min       =   0.0000000000000E+00
(PID.TID 0000.0001) %MON g__extforcing_g_fv_mean      =   0.0000000000000E+00
(PID.TID 0000.0001) %MON g__extforcing_g_fv_sd        =   0.0000000000000E+00
(PID.TID 0000.0001) %MON g__extforcing_g_fv_del2      =   0.0000000000000E+00
(PID.TID 0000.0001) %MON g__g_vcfl_g_uvel_max         =   5.2515342354994E-05
(PID.TID 0000.0001) %MON g__g_vcfl_g_vvel_max         =   2.9291275028248E-05
(PID.TID 0000.0001) %MON g__g_vcfl_g_wvel_max         =   5.3984291516570E-05
(PID.TID 0000.0001) %MON g__g_vcfl_g_W_hf_max         =   1.2375002399950E-04
(PID.TID 0000.0001) // =======================================================
(PID.TID 0000.0001) // End MONITOR dynamic field statistics
(PID.TID 0000.0001) // =======================================================
 cg2d: Sum(rhs),rhsMax =   6.97977633422852E-12  1.62541546775647E-02
 cg2d: Sum(rhs),rhsMax =   2.89610002646157E-12  8.00388417689157E+00
(PID.TID 0000.0001) // =======================================================
(PID.TID 0000.0001) // Begin MONITOR dynamic field statistics
(PID.TID 0000.0001) // =======================================================
(PID.TID 0000.0001) %MON g__time_tsnumber             =                    72
(PID.TID 0000.0001) %MON g__time_secondsf             =   3.1104000000000E+06
(PID.TID 0000.0001) %MON g__dynstat_g_eta_max         =   3.9311962794237E-03
(PID.TID 0000.0001) %MON g__dynstat_g_eta_min         =  -2.1228675540969E-05
(PID.TID 0000.0001) %MON g__dynstat_g_eta_mean        =  -7.2374854156179E-18
(PID.TID 0000.0001) %MON g__dynstat_g_eta_sd          =   5.0571042535888E-05
(PID.TID 0000.0001) %MON g__dynstat_g_eta_del2        =   2.4604369019009E-06
(PID.TID 0000.0001) %MON g__dynstat_g_uvel_max        =   3.2873085436397E-05
(PID.TID 0000.0001) %MON g__dynstat_g_uvel_min        =  -1.4751776644972E-04
(PID.TID 0000.0001) %MON g__dynstat_g_uvel_mean       =   2.5941125934140E-08
(PID.TID 0000.0001) %MON g__dynstat_g_uvel_sd         =   5.0022900269208E-07
(PID.TID 0000.0001) %MON g__dynstat_g_uvel_del2       =   5.0407530841487E-08
(PID.TID 0000.0001) %MON g__dynstat_g_vvel_max        =   3.0290118974501E-04
(PID.TID 0000.0001) %MON g__dynstat_g_vvel_min        =  -3.0027675432064E-04
(PID.TID 0000.0001) %MON g__dynstat_g_vvel_mean       =   7.8380795307239E-09
(PID.TID 0000.0001) %MON g__dynstat_g_vvel_sd         =   7.8544089074403E-07
(PID.TID 0000.0001) %MON g__dynstat_g_vvel_del2       =   6.2914154416007E-08
(PID.TID 0000.0001) %MON g__dynstat_g_wvel_max        =   6.9675587570776E-08
(PID.TID 0000.0001) %MON g__dynstat_g_wvel_min        =  -8.2700207639259E-08
(PID.TID 0000.0001) %MON g__dynstat_g_wvel_mean       =  -1.5457074944504E-27
(PID.TID 0000.0001) %MON g__dynstat_g_wvel_sd         =   4.8875883426787E-10
(PID.TID 0000.0001) %MON g__dynstat_g_wvel_del2       =   9.6808366616256E-11
(PID.TID 0000.0001) %MON g__dynstat_g_theta_max       =   5.9159682726481E-01
(PID.TID 0000.0001) %MON g__dynstat_g_theta_min       =  -8.1360987286925E-04
(PID.TID 0000.0001) %MON g__dynstat_g_theta_mean      =   2.9387330049141E-06
(PID.TID 0000.0001) %MON g__dynstat_g_theta_sd        =   9.4771672159222E-04
(PID.TID 0000.0001) %MON g__dynstat_g_theta_del2      =   3.6892875821347E-05
(PID.TID 0000.0001) %MON g__dynstat_g_salt_max        =   7.9652954555624E-03
(PID.TID 0000.0001) %MON g__dynstat_g_salt_min        =  -1.3960415292461E-02
(PID.TID 0000.0001) %MON g__dynstat_g_salt_mean       =   1.1781423681028E-09
(PID.TID 0000.0001) %MON g__dynstat_g_salt_sd         =   2.4582303603678E-05
(PID.TID 0000.0001) %MON g__dynstat_g_salt_del2       =   1.5445433555368E-06
(PID.TID 0000.0001) %MON g__dynstat_g_sst_max         =   5.9159682726481E-01
(PID.TID 0000.0001) %MON g__dynstat_g_sst_min         =  -7.9307389992694E-05
(PID.TID 0000.0001) %MON g__dynstat_g_sst_mean        =   1.3100924514400E-04
(PID.TID 0000.0001) %MON g__dynstat_g_sst_sd          =   7.6308803153894E-03
(PID.TID 0000.0001) %MON g__dynstat_g_sst_del2        =   3.3864834001155E-04
(PID.TID 0000.0001) %MON g__dynstat_g_sss_max         =   7.9652954555624E-03
(PID.TID 0000.0001) %MON g__dynstat_g_sss_min         =  -1.3960415292461E-02
(PID.TID 0000.0001) %MON g__dynstat_g_sss_mean        =   9.4561998129254E-08
(PID.TID 0000.0001) %MON g__dynstat_g_sss_sd          =   2.1227396241584E-04
(PID.TID 0000.0001) %MON g__dynstat_g_sss_del2        =   1.6545150864236E-05
(PID.TID 0000.0001) %MON g__extforcing_g_qnet_max     =   0.0000000000000E+00
(PID.TID 0000.0001) %MON g__extforcing_g_qnet_min     =   0.0000000000000E+00
(PID.TID 0000.0001) %MON g__extforcing_g_qnet_mean    =   0.0000000000000E+00
(PID.TID 0000.0001) %MON g__extforcing_g_qnet_sd      =   0.0000000000000E+00
(PID.TID 0000.0001) %MON g__extforcing_g_qnet_del2    =   0.0000000000000E+00
(PID.TID 0000.0001) %MON g__extforcing_g_empmr_max    =   0.0000000000000E+00
(PID.TID 0000.0001) %MON g__extforcing_g_empmr_min    =   0.0000000000000E+00
(PID.TID 0000.0001) %MON g__extforcing_g_empmr_mean   =   0.0000000000000E+00
(PID.TID 0000.0001) %MON g__extforcing_g_empmr_sd     =   0.0000000000000E+00
(PID.TID 0000.0001) %MON g__extforcing_g_empmr_del2   =   0.0000000000000E+00
(PID.TID 0000.0001) %MON g__extforcing_g_fu_max       =   0.0000000000000E+00
(PID.TID 0000.0001) %MON g__extforcing_g_fu_min       =   0.0000000000000E+00
(PID.TID 0000.0001) %MON g__extforcing_g_fu_mean      =   0.0000000000000E+00
(PID.TID 0000.0001) %MON g__extforcing_g_fu_sd        =   0.0000000000000E+00
(PID.TID 0000.0001) %MON g__extforcing_g_fu_del2      =   0.0000000000000E+00
(PID.TID 0000.0001) %MON g__extforcing_g_fv_max       =   0.0000000000000E+00
(PID.TID 0000.0001) %MON g__extforcing_g_fv_min       =   0.0000000000000E+00
(PID.TID 0000.0001) %MON g__extforcing_g_fv_mean      =   0.0000000000000E+00
(PID.TID 0000.0001) %MON g__extforcing_g_fv_sd        =   0.0000000000000E+00
(PID.TID 0000.0001) %MON g__extforcing_g_fv_del2      =   0.0000000000000E+00
(PID.TID 0000.0001) %MON g__g_vcfl_g_uvel_max         =   4.8531384047719E-05
(PID.TID 0000.0001) %MON g__g_vcfl_g_vvel_max         =   2.9424421608212E-05
(PID.TID 0000.0001) %MON g__g_vcfl_g_wvel_max         =   6.2579750241994E-05
(PID.TID 0000.0001) %MON g__g_vcfl_g_W_hf_max         =   1.2851457490582E-04
(PID.TID 0000.0001) // =======================================================
(PID.TID 0000.0001) // End MONITOR dynamic field statistics
(PID.TID 0000.0001) // =======================================================
 cg2d: Sum(rhs),rhsMax =   7.09981537504763E-12  1.60435317123467E-02
 cg2d: Sum(rhs),rhsMax =   3.19839987827919E-12  8.02911791318482E+00
(PID.TID 0000.0001) // =======================================================
(PID.TID 0000.0001) // Begin MONITOR dynamic field statistics
(PID.TID 0000.0001) // =======================================================
(PID.TID 0000.0001) %MON g__time_tsnumber             =                    73
(PID.TID 0000.0001) %MON g__time_secondsf             =   3.1536000000000E+06
(PID.TID 0000.0001) %MON g__dynstat_g_eta_max         =   3.8835699962625E-03
(PID.TID 0000.0001) %MON g__dynstat_g_eta_min         =  -1.9335627706360E-05
(PID.TID 0000.0001) %MON g__dynstat_g_eta_mean        =  -7.2657526677027E-18
(PID.TID 0000.0001) %MON g__dynstat_g_eta_sd          =   4.9995191461043E-05
(PID.TID 0000.0001) %MON g__dynstat_g_eta_del2        =   2.4294715496298E-06
(PID.TID 0000.0001) %MON g__dynstat_g_uvel_max        =   3.1829935667219E-05
(PID.TID 0000.0001) %MON g__dynstat_g_uvel_min        =  -1.4510907886638E-04
(PID.TID 0000.0001) %MON g__dynstat_g_uvel_mean       =   2.6152320788998E-08
(PID.TID 0000.0001) %MON g__dynstat_g_uvel_sd         =   4.7549740200577E-07
(PID.TID 0000.0001) %MON g__dynstat_g_uvel_del2       =   5.0110305315050E-08
(PID.TID 0000.0001) %MON g__dynstat_g_vvel_max        =   3.0680266491798E-04
(PID.TID 0000.0001) %MON g__dynstat_g_vvel_min        =  -2.9786209682297E-04
(PID.TID 0000.0001) %MON g__dynstat_g_vvel_mean       =   7.2961269816243E-09
(PID.TID 0000.0001) %MON g__dynstat_g_vvel_sd         =   7.8800166274316E-07
(PID.TID 0000.0001) %MON g__dynstat_g_vvel_del2       =   6.3182808546794E-08
(PID.TID 0000.0001) %MON g__dynstat_g_wvel_max        =   7.2747817849868E-08
(PID.TID 0000.0001) %MON g__dynstat_g_wvel_min        =  -8.4194463740054E-08
(PID.TID 0000.0001) %MON g__dynstat_g_wvel_mean       =   2.0334399711887E-28
(PID.TID 0000.0001) %MON g__dynstat_g_wvel_sd         =   4.8255556079577E-10
(PID.TID 0000.0001) %MON g__dynstat_g_wvel_del2       =   9.6866393396904E-11
(PID.TID 0000.0001) %MON g__dynstat_g_theta_max       =   5.8362629547268E-01
(PID.TID 0000.0001) %MON g__dynstat_g_theta_min       =  -8.5520865885373E-04
(PID.TID 0000.0001) %MON g__dynstat_g_theta_mean      =   2.9168125516749E-06
(PID.TID 0000.0001) %MON g__dynstat_g_theta_sd        =   9.3609968926243E-04
(PID.TID 0000.0001) %MON g__dynstat_g_theta_del2      =   3.6372280965861E-05
(PID.TID 0000.0001) %MON g__dynstat_g_salt_max        =   7.9654275389710E-03
(PID.TID 0000.0001) %MON g__dynstat_g_salt_min        =  -1.3941314597310E-02
(PID.TID 0000.0001) %MON g__dynstat_g_salt_mean       =   1.3134385341934E-09
(PID.TID 0000.0001) %MON g__dynstat_g_salt_sd         =   2.4552858576802E-05
(PID.TID 0000.0001) %MON g__dynstat_g_salt_del2       =   1.5460726535813E-06
(PID.TID 0000.0001) %MON g__dynstat_g_sst_max         =   5.8362629547268E-01
(PID.TID 0000.0001) %MON g__dynstat_g_sst_min         =  -8.2012588880033E-05
(PID.TID 0000.0001) %MON g__dynstat_g_sst_mean        =   1.2967557500536E-04
(PID.TID 0000.0001) %MON g__dynstat_g_sst_sd          =   7.5327425037024E-03
(PID.TID 0000.0001) %MON g__dynstat_g_sst_del2        =   3.3363013491747E-04
(PID.TID 0000.0001) %MON g__dynstat_g_sss_max         =   7.9654275389710E-03
(PID.TID 0000.0001) %MON g__dynstat_g_sss_min         =  -1.3941314597310E-02
(PID.TID 0000.0001) %MON g__dynstat_g_sss_mean        =   9.6784777529707E-08
(PID.TID 0000.0001) %MON g__dynstat_g_sss_sd          =   2.1195223953594E-04
(PID.TID 0000.0001) %MON g__dynstat_g_sss_del2        =   1.6518747602447E-05
(PID.TID 0000.0001) %MON g__extforcing_g_qnet_max     =   0.0000000000000E+00
(PID.TID 0000.0001) %MON g__extforcing_g_qnet_min     =   0.0000000000000E+00
(PID.TID 0000.0001) %MON g__extforcing_g_qnet_mean    =   0.0000000000000E+00
(PID.TID 0000.0001) %MON g__extforcing_g_qnet_sd      =   0.0000000000000E+00
(PID.TID 0000.0001) %MON g__extforcing_g_qnet_del2    =   0.0000000000000E+00
(PID.TID 0000.0001) %MON g__extforcing_g_empmr_max    =   0.0000000000000E+00
(PID.TID 0000.0001) %MON g__extforcing_g_empmr_min    =   0.0000000000000E+00
(PID.TID 0000.0001) %MON g__extforcing_g_empmr_mean   =   0.0000000000000E+00
(PID.TID 0000.0001) %MON g__extforcing_g_empmr_sd     =   0.0000000000000E+00
(PID.TID 0000.0001) %MON g__extforcing_g_empmr_del2   =   0.0000000000000E+00
(PID.TID 0000.0001) %MON g__extforcing_g_fu_max       =   0.0000000000000E+00
(PID.TID 0000.0001) %MON g__extforcing_g_fu_min       =   0.0000000000000E+00
(PID.TID 0000.0001) %MON g__extforcing_g_fu_mean      =   0.0000000000000E+00
(PID.TID 0000.0001) %MON g__extforcing_g_fu_sd        =   0.0000000000000E+00
(PID.TID 0000.0001) %MON g__extforcing_g_fu_del2      =   0.0000000000000E+00
(PID.TID 0000.0001) %MON g__extforcing_g_fv_max       =   0.0000000000000E+00
(PID.TID 0000.0001) %MON g__extforcing_g_fv_min       =   0.0000000000000E+00
(PID.TID 0000.0001) %MON g__extforcing_g_fv_mean      =   0.0000000000000E+00
(PID.TID 0000.0001) %MON g__extforcing_g_fv_sd        =   0.0000000000000E+00
(PID.TID 0000.0001) %MON g__extforcing_g_fv_del2      =   0.0000000000000E+00
(PID.TID 0000.0001) %MON g__g_vcfl_g_uvel_max         =   4.4721573877671E-05
(PID.TID 0000.0001) %MON g__g_vcfl_g_vvel_max         =   2.9803418635197E-05
(PID.TID 0000.0001) %MON g__g_vcfl_g_wvel_max         =   6.8581847752130E-05
(PID.TID 0000.0001) %MON g__g_vcfl_g_W_hf_max         =   1.3168932849415E-04
(PID.TID 0000.0001) // =======================================================
(PID.TID 0000.0001) // End MONITOR dynamic field statistics
(PID.TID 0000.0001) // =======================================================
 cg2d: Sum(rhs),rhsMax =   7.22483252959908E-12  1.58270515409374E-02
 cg2d: Sum(rhs),rhsMax =   3.63800656266733E-12  8.49105103448681E+00
(PID.TID 0000.0001) // =======================================================
(PID.TID 0000.0001) // Begin MONITOR dynamic field statistics
(PID.TID 0000.0001) // =======================================================
(PID.TID 0000.0001) %MON g__time_tsnumber             =                    74
(PID.TID 0000.0001) %MON g__time_secondsf             =   3.1968000000000E+06
(PID.TID 0000.0001) %MON g__dynstat_g_eta_max         =   3.8337514514231E-03
(PID.TID 0000.0001) %MON g__dynstat_g_eta_min         =  -1.7905480880545E-05
(PID.TID 0000.0001) %MON g__dynstat_g_eta_mean        =  -7.2781125826702E-18
(PID.TID 0000.0001) %MON g__dynstat_g_eta_sd          =   4.9384317585191E-05
(PID.TID 0000.0001) %MON g__dynstat_g_eta_del2        =   2.3992936589265E-06
(PID.TID 0000.0001) %MON g__dynstat_g_uvel_max        =   3.0577900875730E-05
(PID.TID 0000.0001) %MON g__dynstat_g_uvel_min        =  -1.4308712001699E-04
(PID.TID 0000.0001) %MON g__dynstat_g_uvel_mean       =   2.5982156470895E-08
(PID.TID 0000.0001) %MON g__dynstat_g_uvel_sd         =   4.5247457969964E-07
(PID.TID 0000.0001) %MON g__dynstat_g_uvel_del2       =   5.0095683986963E-08
(PID.TID 0000.0001) %MON g__dynstat_g_vvel_max        =   3.1172490176931E-04
(PID.TID 0000.0001) %MON g__dynstat_g_vvel_min        =  -2.9432200281629E-04
(PID.TID 0000.0001) %MON g__dynstat_g_vvel_mean       =   7.0376910322053E-09
(PID.TID 0000.0001) %MON g__dynstat_g_vvel_sd         =   7.8993660610556E-07
(PID.TID 0000.0001) %MON g__dynstat_g_vvel_del2       =   6.3332112519054E-08
(PID.TID 0000.0001) %MON g__dynstat_g_wvel_max        =   7.7005737618021E-08
(PID.TID 0000.0001) %MON g__dynstat_g_wvel_min        =  -8.4482753180963E-08
(PID.TID 0000.0001) %MON g__dynstat_g_wvel_mean       =  -2.0837509859664E-27
(PID.TID 0000.0001) %MON g__dynstat_g_wvel_sd         =   4.8117690697634E-10
(PID.TID 0000.0001) %MON g__dynstat_g_wvel_del2       =   9.7388608447763E-11
(PID.TID 0000.0001) %MON g__dynstat_g_theta_max       =   5.7576947556429E-01
(PID.TID 0000.0001) %MON g__dynstat_g_theta_min       =  -8.9772970335259E-04
(PID.TID 0000.0001) %MON g__dynstat_g_theta_mean      =   2.8946492193401E-06
(PID.TID 0000.0001) %MON g__dynstat_g_theta_sd        =   9.2465948315084E-04
(PID.TID 0000.0001) %MON g__dynstat_g_theta_del2      =   3.5862066943631E-05
(PID.TID 0000.0001) %MON g__dynstat_g_salt_max        =   7.9663343998536E-03
(PID.TID 0000.0001) %MON g__dynstat_g_salt_min        =  -1.3920136737643E-02
(PID.TID 0000.0001) %MON g__dynstat_g_salt_mean       =   1.5201482850436E-09
(PID.TID 0000.0001) %MON g__dynstat_g_salt_sd         =   2.4521034297197E-05
(PID.TID 0000.0001) %MON g__dynstat_g_salt_del2       =   1.5475977952795E-06
(PID.TID 0000.0001) %MON g__dynstat_g_sst_max         =   5.7576947556429E-01
(PID.TID 0000.0001) %MON g__dynstat_g_sst_min         =  -8.4510178688942E-05
(PID.TID 0000.0001) %MON g__dynstat_g_sst_mean        =   1.2834334226592E-04
(PID.TID 0000.0001) %MON g__dynstat_g_sst_sd          =   7.4359879976424E-03
(PID.TID 0000.0001) %MON g__dynstat_g_sst_del2        =   3.2869256502816E-04
(PID.TID 0000.0001) %MON g__dynstat_g_sss_max         =   7.9663343998536E-03
(PID.TID 0000.0001) %MON g__dynstat_g_sss_min         =  -1.3920136737643E-02
(PID.TID 0000.0001) %MON g__dynstat_g_sss_mean        =   9.9336365311746E-08
(PID.TID 0000.0001) %MON g__dynstat_g_sss_sd          =   2.1160863426162E-04
(PID.TID 0000.0001) %MON g__dynstat_g_sss_del2        =   1.6491964245029E-05
(PID.TID 0000.0001) %MON g__extforcing_g_qnet_max     =   0.0000000000000E+00
(PID.TID 0000.0001) %MON g__extforcing_g_qnet_min     =   0.0000000000000E+00
(PID.TID 0000.0001) %MON g__extforcing_g_qnet_mean    =   0.0000000000000E+00
(PID.TID 0000.0001) %MON g__extforcing_g_qnet_sd      =   0.0000000000000E+00
(PID.TID 0000.0001) %MON g__extforcing_g_qnet_del2    =   0.0000000000000E+00
(PID.TID 0000.0001) %MON g__extforcing_g_empmr_max    =   0.0000000000000E+00
(PID.TID 0000.0001) %MON g__extforcing_g_empmr_min    =   0.0000000000000E+00
(PID.TID 0000.0001) %MON g__extforcing_g_empmr_mean   =   0.0000000000000E+00
(PID.TID 0000.0001) %MON g__extforcing_g_empmr_sd     =   0.0000000000000E+00
(PID.TID 0000.0001) %MON g__extforcing_g_empmr_del2   =   0.0000000000000E+00
(PID.TID 0000.0001) %MON g__extforcing_g_fu_max       =   0.0000000000000E+00
(PID.TID 0000.0001) %MON g__extforcing_g_fu_min       =   0.0000000000000E+00
(PID.TID 0000.0001) %MON g__extforcing_g_fu_mean      =   0.0000000000000E+00
(PID.TID 0000.0001) %MON g__extforcing_g_fu_sd        =   0.0000000000000E+00
(PID.TID 0000.0001) %MON g__extforcing_g_fu_del2      =   0.0000000000000E+00
(PID.TID 0000.0001) %MON g__extforcing_g_fv_max       =   0.0000000000000E+00
(PID.TID 0000.0001) %MON g__extforcing_g_fv_min       =   0.0000000000000E+00
(PID.TID 0000.0001) %MON g__extforcing_g_fv_mean      =   0.0000000000000E+00
(PID.TID 0000.0001) %MON g__extforcing_g_fv_sd        =   0.0000000000000E+00
(PID.TID 0000.0001) %MON g__extforcing_g_fv_del2      =   0.0000000000000E+00
(PID.TID 0000.0001) %MON g__g_vcfl_g_uvel_max         =   4.1146654695149E-05
(PID.TID 0000.0001) %MON g__g_vcfl_g_vvel_max         =   3.0281574473709E-05
(PID.TID 0000.0001) %MON g__g_vcfl_g_wvel_max         =   7.1738704568736E-05
(PID.TID 0000.0001) %MON g__g_vcfl_g_W_hf_max         =   1.3310083675084E-04
(PID.TID 0000.0001) // =======================================================
(PID.TID 0000.0001) // End MONITOR dynamic field statistics
(PID.TID 0000.0001) // =======================================================
 cg2d: Sum(rhs),rhsMax =   7.33783833634043E-12  1.56126409212568E-02
 cg2d: Sum(rhs),rhsMax =   2.59998272911233E-12  8.90375443856863E+00
(PID.TID 0000.0001) // =======================================================
(PID.TID 0000.0001) // Begin MONITOR dynamic field statistics
(PID.TID 0000.0001) // =======================================================
(PID.TID 0000.0001) %MON g__time_tsnumber             =                    75
(PID.TID 0000.0001) %MON g__time_secondsf             =   3.2400000000000E+06
(PID.TID 0000.0001) %MON g__dynstat_g_eta_max         =   3.7837407542313E-03
(PID.TID 0000.0001) %MON g__dynstat_g_eta_min         =  -1.7940074813718E-05
(PID.TID 0000.0001) %MON g__dynstat_g_eta_mean        =  -7.2645235883202E-18
(PID.TID 0000.0001) %MON g__dynstat_g_eta_sd          =   4.8764280783071E-05
(PID.TID 0000.0001) %MON g__dynstat_g_eta_del2        =   2.3704052654009E-06
(PID.TID 0000.0001) %MON g__dynstat_g_uvel_max        =   2.9061750740494E-05
(PID.TID 0000.0001) %MON g__dynstat_g_uvel_min        =  -1.4144395545110E-04
(PID.TID 0000.0001) %MON g__dynstat_g_uvel_mean       =   2.5383905246999E-08
(PID.TID 0000.0001) %MON g__dynstat_g_uvel_sd         =   4.3217982042237E-07
(PID.TID 0000.0001) %MON g__dynstat_g_uvel_del2       =   5.0112422063637E-08
(PID.TID 0000.0001) %MON g__dynstat_g_vvel_max        =   3.1737510188791E-04
(PID.TID 0000.0001) %MON g__dynstat_g_vvel_min        =  -2.8971966403206E-04
(PID.TID 0000.0001) %MON g__dynstat_g_vvel_mean       =   7.0172803463495E-09
(PID.TID 0000.0001) %MON g__dynstat_g_vvel_sd         =   7.9101773281946E-07
(PID.TID 0000.0001) %MON g__dynstat_g_vvel_del2       =   6.3323451696446E-08
(PID.TID 0000.0001) %MON g__dynstat_g_wvel_max        =   8.2187567770096E-08
(PID.TID 0000.0001) %MON g__dynstat_g_wvel_min        =  -8.3608673239162E-08
(PID.TID 0000.0001) %MON g__dynstat_g_wvel_mean       =  -1.5947279223273E-27
(PID.TID 0000.0001) %MON g__dynstat_g_wvel_sd         =   4.8307719571505E-10
(PID.TID 0000.0001) %MON g__dynstat_g_wvel_del2       =   9.8444476177421E-11
(PID.TID 0000.0001) %MON g__dynstat_g_theta_max       =   5.6813809903374E-01
(PID.TID 0000.0001) %MON g__dynstat_g_theta_min       =  -9.3639770375185E-04
(PID.TID 0000.0001) %MON g__dynstat_g_theta_mean      =   2.8731215108027E-06
(PID.TID 0000.0001) %MON g__dynstat_g_theta_sd        =   9.1361953203670E-04
(PID.TID 0000.0001) %MON g__dynstat_g_theta_del2      =   3.5369803573438E-05
(PID.TID 0000.0001) %MON g__dynstat_g_salt_max        =   7.9695301750897E-03
(PID.TID 0000.0001) %MON g__dynstat_g_salt_min        =  -1.3901410703875E-02
(PID.TID 0000.0001) %MON g__dynstat_g_salt_mean       =   1.7868318293652E-09
(PID.TID 0000.0001) %MON g__dynstat_g_salt_sd         =   2.4493729567778E-05
(PID.TID 0000.0001) %MON g__dynstat_g_salt_del2       =   1.5488143863955E-06
(PID.TID 0000.0001) %MON g__dynstat_g_sst_max         =   5.6813809903374E-01
(PID.TID 0000.0001) %MON g__dynstat_g_sst_min         =  -8.6724451883464E-05
(PID.TID 0000.0001) %MON g__dynstat_g_sst_mean        =   1.2704011285390E-04
(PID.TID 0000.0001) %MON g__dynstat_g_sst_sd          =   7.3420459364004E-03
(PID.TID 0000.0001) %MON g__dynstat_g_sst_del2        =   3.2390210844711E-04
(PID.TID 0000.0001) %MON g__dynstat_g_sss_max         =   7.9695301750897E-03
(PID.TID 0000.0001) %MON g__dynstat_g_sss_min         =  -1.3901410703875E-02
(PID.TID 0000.0001) %MON g__dynstat_g_sss_mean        =   1.0271466892151E-07
(PID.TID 0000.0001) %MON g__dynstat_g_sss_sd          =   2.1130915074101E-04
(PID.TID 0000.0001) %MON g__dynstat_g_sss_del2        =   1.6468924448227E-05
(PID.TID 0000.0001) %MON g__extforcing_g_qnet_max     =   0.0000000000000E+00
(PID.TID 0000.0001) %MON g__extforcing_g_qnet_min     =   0.0000000000000E+00
(PID.TID 0000.0001) %MON g__extforcing_g_qnet_mean    =   0.0000000000000E+00
(PID.TID 0000.0001) %MON g__extforcing_g_qnet_sd      =   0.0000000000000E+00
(PID.TID 0000.0001) %MON g__extforcing_g_qnet_del2    =   0.0000000000000E+00
(PID.TID 0000.0001) %MON g__extforcing_g_empmr_max    =   0.0000000000000E+00
(PID.TID 0000.0001) %MON g__extforcing_g_empmr_min    =   0.0000000000000E+00
(PID.TID 0000.0001) %MON g__extforcing_g_empmr_mean   =   0.0000000000000E+00
(PID.TID 0000.0001) %MON g__extforcing_g_empmr_sd     =   0.0000000000000E+00
(PID.TID 0000.0001) %MON g__extforcing_g_empmr_del2   =   0.0000000000000E+00
(PID.TID 0000.0001) %MON g__extforcing_g_fu_max       =   0.0000000000000E+00
(PID.TID 0000.0001) %MON g__extforcing_g_fu_min       =   0.0000000000000E+00
(PID.TID 0000.0001) %MON g__extforcing_g_fu_mean      =   0.0000000000000E+00
(PID.TID 0000.0001) %MON g__extforcing_g_fu_sd        =   0.0000000000000E+00
(PID.TID 0000.0001) %MON g__extforcing_g_fu_del2      =   0.0000000000000E+00
(PID.TID 0000.0001) %MON g__extforcing_g_fv_max       =   0.0000000000000E+00
(PID.TID 0000.0001) %MON g__extforcing_g_fv_min       =   0.0000000000000E+00
(PID.TID 0000.0001) %MON g__extforcing_g_fv_mean      =   0.0000000000000E+00
(PID.TID 0000.0001) %MON g__extforcing_g_fv_sd        =   0.0000000000000E+00
(PID.TID 0000.0001) %MON g__extforcing_g_fv_del2      =   0.0000000000000E+00
(PID.TID 0000.0001) %MON g__g_vcfl_g_uvel_max         =   4.0173499415308E-05
(PID.TID 0000.0001) %MON g__g_vcfl_g_vvel_max         =   3.0830446106073E-05
(PID.TID 0000.0001) %MON g__g_vcfl_g_wvel_max         =   7.2015403956190E-05
(PID.TID 0000.0001) %MON g__g_vcfl_g_W_hf_max         =   1.3270235512582E-04
(PID.TID 0000.0001) // =======================================================
(PID.TID 0000.0001) // End MONITOR dynamic field statistics
(PID.TID 0000.0001) // =======================================================
 cg2d: Sum(rhs),rhsMax =   7.42007920684123E-12  1.54075547384418E-02
 cg2d: Sum(rhs),rhsMax =   2.51632048531292E-12  9.21995752446139E+00
(PID.TID 0000.0001) // =======================================================
(PID.TID 0000.0001) // Begin MONITOR dynamic field statistics
(PID.TID 0000.0001) // =======================================================
(PID.TID 0000.0001) %MON g__time_tsnumber             =                    76
(PID.TID 0000.0001) %MON g__time_secondsf             =   3.2832000000000E+06
(PID.TID 0000.0001) %MON g__dynstat_g_eta_max         =   3.7354254315729E-03
(PID.TID 0000.0001) %MON g__dynstat_g_eta_min         =  -1.8361766020550E-05
(PID.TID 0000.0001) %MON g__dynstat_g_eta_mean        =  -7.2245755788285E-18
(PID.TID 0000.0001) %MON g__dynstat_g_eta_sd          =   4.8160191715329E-05
(PID.TID 0000.0001) %MON g__dynstat_g_eta_del2        =   2.3418057768974E-06
(PID.TID 0000.0001) %MON g__dynstat_g_uvel_max        =   2.7243814831765E-05
(PID.TID 0000.0001) %MON g__dynstat_g_uvel_min        =  -1.4016502228693E-04
(PID.TID 0000.0001) %MON g__dynstat_g_uvel_mean       =   2.4341458218077E-08
(PID.TID 0000.0001) %MON g__dynstat_g_uvel_sd         =   4.1546873262082E-07
(PID.TID 0000.0001) %MON g__dynstat_g_uvel_del2       =   5.0332827758237E-08
(PID.TID 0000.0001) %MON g__dynstat_g_vvel_max        =   3.2347379819702E-04
(PID.TID 0000.0001) %MON g__dynstat_g_vvel_min        =  -2.8414166124171E-04
(PID.TID 0000.0001) %MON g__dynstat_g_vvel_mean       =   7.1757542862816E-09
(PID.TID 0000.0001) %MON g__dynstat_g_vvel_sd         =   7.9114266610913E-07
(PID.TID 0000.0001) %MON g__dynstat_g_vvel_del2       =   6.3206332941368E-08
(PID.TID 0000.0001) %MON g__dynstat_g_wvel_max        =   8.7990146567194E-08
(PID.TID 0000.0001) %MON g__dynstat_g_wvel_min        =  -8.1693576750378E-08
(PID.TID 0000.0001) %MON g__dynstat_g_wvel_mean       =  -2.0561892996099E-27
(PID.TID 0000.0001) %MON g__dynstat_g_wvel_sd         =   4.8715943946612E-10
(PID.TID 0000.0001) %MON g__dynstat_g_wvel_del2       =   9.9590371318421E-11
(PID.TID 0000.0001) %MON g__dynstat_g_theta_max       =   5.6082505303220E-01
(PID.TID 0000.0001) %MON g__dynstat_g_theta_min       =  -9.6678456170278E-04
(PID.TID 0000.0001) %MON g__dynstat_g_theta_mean      =   2.8530035295950E-06
(PID.TID 0000.0001) %MON g__dynstat_g_theta_sd        =   9.0316699233866E-04
(PID.TID 0000.0001) %MON g__dynstat_g_theta_del2      =   3.4905962707606E-05
(PID.TID 0000.0001) %MON g__dynstat_g_salt_max        =   7.9763113117328E-03
(PID.TID 0000.0001) %MON g__dynstat_g_salt_min        =  -1.3889113631421E-02
(PID.TID 0000.0001) %MON g__dynstat_g_salt_mean       =   2.0981219113437E-09
(PID.TID 0000.0001) %MON g__dynstat_g_salt_sd         =   2.4476940036663E-05
(PID.TID 0000.0001) %MON g__dynstat_g_salt_del2       =   1.5501812819818E-06
(PID.TID 0000.0001) %MON g__dynstat_g_sst_max         =   5.6082505303220E-01
(PID.TID 0000.0001) %MON g__dynstat_g_sst_min         =  -8.8603936570750E-05
(PID.TID 0000.0001) %MON g__dynstat_g_sst_mean        =   1.2578494461311E-04
(PID.TID 0000.0001) %MON g__dynstat_g_sst_sd          =   7.2521051397343E-03
(PID.TID 0000.0001) %MON g__dynstat_g_sst_del2        =   3.1930781883457E-04
(PID.TID 0000.0001) %MON g__dynstat_g_sss_max         =   7.9763113117328E-03
(PID.TID 0000.0001) %MON g__dynstat_g_sss_min         =  -1.3889113631421E-02
(PID.TID 0000.0001) %MON g__dynstat_g_sss_mean        =   1.0649329815325E-07
(PID.TID 0000.0001) %MON g__dynstat_g_sss_sd          =   2.1111161702333E-04
(PID.TID 0000.0001) %MON g__dynstat_g_sss_del2        =   1.6453823320208E-05
(PID.TID 0000.0001) %MON g__extforcing_g_qnet_max     =   0.0000000000000E+00
(PID.TID 0000.0001) %MON g__extforcing_g_qnet_min     =   0.0000000000000E+00
(PID.TID 0000.0001) %MON g__extforcing_g_qnet_mean    =   0.0000000000000E+00
(PID.TID 0000.0001) %MON g__extforcing_g_qnet_sd      =   0.0000000000000E+00
(PID.TID 0000.0001) %MON g__extforcing_g_qnet_del2    =   0.0000000000000E+00
(PID.TID 0000.0001) %MON g__extforcing_g_empmr_max    =   0.0000000000000E+00
(PID.TID 0000.0001) %MON g__extforcing_g_empmr_min    =   0.0000000000000E+00
(PID.TID 0000.0001) %MON g__extforcing_g_empmr_mean   =   0.0000000000000E+00
(PID.TID 0000.0001) %MON g__extforcing_g_empmr_sd     =   0.0000000000000E+00
(PID.TID 0000.0001) %MON g__extforcing_g_empmr_del2   =   0.0000000000000E+00
(PID.TID 0000.0001) %MON g__extforcing_g_fu_max       =   0.0000000000000E+00
(PID.TID 0000.0001) %MON g__extforcing_g_fu_min       =   0.0000000000000E+00
(PID.TID 0000.0001) %MON g__extforcing_g_fu_mean      =   0.0000000000000E+00
(PID.TID 0000.0001) %MON g__extforcing_g_fu_sd        =   0.0000000000000E+00
(PID.TID 0000.0001) %MON g__extforcing_g_fu_del2      =   0.0000000000000E+00
(PID.TID 0000.0001) %MON g__extforcing_g_fv_max       =   0.0000000000000E+00
(PID.TID 0000.0001) %MON g__extforcing_g_fv_min       =   0.0000000000000E+00
(PID.TID 0000.0001) %MON g__extforcing_g_fv_mean      =   0.0000000000000E+00
(PID.TID 0000.0001) %MON g__extforcing_g_fv_sd        =   0.0000000000000E+00
(PID.TID 0000.0001) %MON g__extforcing_g_fv_del2      =   0.0000000000000E+00
(PID.TID 0000.0001) %MON g__g_vcfl_g_uvel_max         =   3.9810251508677E-05
(PID.TID 0000.0001) %MON g__g_vcfl_g_vvel_max         =   3.1422885546839E-05
(PID.TID 0000.0001) %MON g__g_vcfl_g_wvel_max         =   6.9574064628040E-05
(PID.TID 0000.0001) %MON g__g_vcfl_g_W_hf_max         =   1.3615237396169E-04
(PID.TID 0000.0001) // =======================================================
(PID.TID 0000.0001) // End MONITOR dynamic field statistics
(PID.TID 0000.0001) // =======================================================
 cg2d: Sum(rhs),rhsMax =   7.47252468651194E-12  1.52179663018869E-02
 cg2d: Sum(rhs),rhsMax =   2.81209777686087E-12  9.43408891658781E+00
(PID.TID 0000.0001) // =======================================================
(PID.TID 0000.0001) // Begin MONITOR dynamic field statistics
(PID.TID 0000.0001) // =======================================================
(PID.TID 0000.0001) %MON g__time_tsnumber             =                    77
(PID.TID 0000.0001) %MON g__time_secondsf             =   3.3264000000000E+06
(PID.TID 0000.0001) %MON g__dynstat_g_eta_max         =   3.6904627438044E-03
(PID.TID 0000.0001) %MON g__dynstat_g_eta_min         =  -1.8745198397656E-05
(PID.TID 0000.0001) %MON g__dynstat_g_eta_mean        =  -7.1642616403234E-18
(PID.TID 0000.0001) %MON g__dynstat_g_eta_sd          =   4.7594766827842E-05
(PID.TID 0000.0001) %MON g__dynstat_g_eta_del2        =   2.3156841791668E-06
(PID.TID 0000.0001) %MON g__dynstat_g_uvel_max        =   2.7400119489461E-05
(PID.TID 0000.0001) %MON g__dynstat_g_uvel_min        =  -1.3923161491411E-04
(PID.TID 0000.0001) %MON g__dynstat_g_uvel_mean       =   2.2871341916194E-08
(PID.TID 0000.0001) %MON g__dynstat_g_uvel_sd         =   4.0292318938074E-07
(PID.TID 0000.0001) %MON g__dynstat_g_uvel_del2       =   5.0618252835177E-08
(PID.TID 0000.0001) %MON g__dynstat_g_vvel_max        =   3.2976430911964E-04
(PID.TID 0000.0001) %MON g__dynstat_g_vvel_min        =  -2.7769369300687E-04
(PID.TID 0000.0001) %MON g__dynstat_g_vvel_mean       =   7.4458238615875E-09
(PID.TID 0000.0001) %MON g__dynstat_g_vvel_sd         =   7.9033131764328E-07
(PID.TID 0000.0001) %MON g__dynstat_g_vvel_del2       =   6.3066579659994E-08
(PID.TID 0000.0001) %MON g__dynstat_g_wvel_max        =   9.4077713705556E-08
(PID.TID 0000.0001) %MON g__dynstat_g_wvel_min        =  -7.8926458974428E-08
(PID.TID 0000.0001) %MON g__dynstat_g_wvel_mean       =  -9.6929638557782E-28
(PID.TID 0000.0001) %MON g__dynstat_g_wvel_sd         =   4.9279796620604E-10
(PID.TID 0000.0001) %MON g__dynstat_g_wvel_del2       =   1.0057509538648E-10
(PID.TID 0000.0001) %MON g__dynstat_g_theta_max       =   5.5390041276083E-01
(PID.TID 0000.0001) %MON g__dynstat_g_theta_min       =  -9.8505968467549E-04
(PID.TID 0000.0001) %MON g__dynstat_g_theta_mean      =   2.8349351755423E-06
(PID.TID 0000.0001) %MON g__dynstat_g_theta_sd        =   8.9344501070323E-04
(PID.TID 0000.0001) %MON g__dynstat_g_theta_del2      =   3.4476866437985E-05
(PID.TID 0000.0001) %MON g__dynstat_g_salt_max        =   7.9876965746353E-03
(PID.TID 0000.0001) %MON g__dynstat_g_salt_min        =  -1.3886473530201E-02
(PID.TID 0000.0001) %MON g__dynstat_g_salt_mean       =   2.4362205158658E-09
(PID.TID 0000.0001) %MON g__dynstat_g_salt_sd         =   2.4475497418513E-05
(PID.TID 0000.0001) %MON g__dynstat_g_salt_del2       =   1.5518041499644E-06
(PID.TID 0000.0001) %MON g__dynstat_g_sst_max         =   5.5390041276083E-01
(PID.TID 0000.0001) %MON g__dynstat_g_sst_min         =  -9.0123438773193E-05
(PID.TID 0000.0001) %MON g__dynstat_g_sst_mean        =   1.2459665090190E-04
(PID.TID 0000.0001) %MON g__dynstat_g_sst_sd          =   7.1670631008114E-03
(PID.TID 0000.0001) %MON g__dynstat_g_sst_del2        =   3.1494960813899E-04
(PID.TID 0000.0001) %MON g__dynstat_g_sss_max         =   7.9876965746353E-03
(PID.TID 0000.0001) %MON g__dynstat_g_sss_min         =  -1.3886473530201E-02
(PID.TID 0000.0001) %MON g__dynstat_g_sss_mean        =   1.1073906747153E-07
(PID.TID 0000.0001) %MON g__dynstat_g_sss_sd          =   2.1106285021467E-04
(PID.TID 0000.0001) %MON g__dynstat_g_sss_del2        =   1.6450407330045E-05
(PID.TID 0000.0001) %MON g__extforcing_g_qnet_max     =   0.0000000000000E+00
(PID.TID 0000.0001) %MON g__extforcing_g_qnet_min     =   0.0000000000000E+00
(PID.TID 0000.0001) %MON g__extforcing_g_qnet_mean    =   0.0000000000000E+00
(PID.TID 0000.0001) %MON g__extforcing_g_qnet_sd      =   0.0000000000000E+00
(PID.TID 0000.0001) %MON g__extforcing_g_qnet_del2    =   0.0000000000000E+00
(PID.TID 0000.0001) %MON g__extforcing_g_empmr_max    =   0.0000000000000E+00
(PID.TID 0000.0001) %MON g__extforcing_g_empmr_min    =   0.0000000000000E+00
(PID.TID 0000.0001) %MON g__extforcing_g_empmr_mean   =   0.0000000000000E+00
(PID.TID 0000.0001) %MON g__extforcing_g_empmr_sd     =   0.0000000000000E+00
(PID.TID 0000.0001) %MON g__extforcing_g_empmr_del2   =   0.0000000000000E+00
(PID.TID 0000.0001) %MON g__extforcing_g_fu_max       =   0.0000000000000E+00
(PID.TID 0000.0001) %MON g__extforcing_g_fu_min       =   0.0000000000000E+00
(PID.TID 0000.0001) %MON g__extforcing_g_fu_mean      =   0.0000000000000E+00
(PID.TID 0000.0001) %MON g__extforcing_g_fu_sd        =   0.0000000000000E+00
(PID.TID 0000.0001) %MON g__extforcing_g_fu_del2      =   0.0000000000000E+00
(PID.TID 0000.0001) %MON g__extforcing_g_fv_max       =   0.0000000000000E+00
(PID.TID 0000.0001) %MON g__extforcing_g_fv_min       =   0.0000000000000E+00
(PID.TID 0000.0001) %MON g__extforcing_g_fv_mean      =   0.0000000000000E+00
(PID.TID 0000.0001) %MON g__extforcing_g_fv_sd        =   0.0000000000000E+00
(PID.TID 0000.0001) %MON g__extforcing_g_fv_del2      =   0.0000000000000E+00
(PID.TID 0000.0001) %MON g__g_vcfl_g_uvel_max         =   3.9545141271718E-05
(PID.TID 0000.0001) %MON g__g_vcfl_g_vvel_max         =   3.2033958239139E-05
(PID.TID 0000.0001) %MON g__g_vcfl_g_wvel_max         =   6.4746270386580E-05
(PID.TID 0000.0001) %MON g__g_vcfl_g_W_hf_max         =   1.4436931423813E-04
(PID.TID 0000.0001) // =======================================================
(PID.TID 0000.0001) // End MONITOR dynamic field statistics
(PID.TID 0000.0001) // =======================================================
 cg2d: Sum(rhs),rhsMax =   7.49569305594004E-12  1.50486673470303E-02
 cg2d: Sum(rhs),rhsMax =   1.78770193093314E-12  9.54305671450155E+00
(PID.TID 0000.0001) // =======================================================
(PID.TID 0000.0001) // Begin MONITOR dynamic field statistics
(PID.TID 0000.0001) // =======================================================
(PID.TID 0000.0001) %MON g__time_tsnumber             =                    78
(PID.TID 0000.0001) %MON g__time_secondsf             =   3.3696000000000E+06
(PID.TID 0000.0001) %MON g__dynstat_g_eta_max         =   3.6501887809016E-03
(PID.TID 0000.0001) %MON g__dynstat_g_eta_min         =  -1.9084953588416E-05
(PID.TID 0000.0001) %MON g__dynstat_g_eta_mean        =  -7.1116172545074E-18
(PID.TID 0000.0001) %MON g__dynstat_g_eta_sd          =   4.7086943165336E-05
(PID.TID 0000.0001) %MON g__dynstat_g_eta_del2        =   2.2925526335271E-06
(PID.TID 0000.0001) %MON g__dynstat_g_uvel_max        =   4.2982043260601E-05
(PID.TID 0000.0001) %MON g__dynstat_g_uvel_min        =  -1.3862298168869E-04
(PID.TID 0000.0001) %MON g__dynstat_g_uvel_mean       =   2.1017434510449E-08
(PID.TID 0000.0001) %MON g__dynstat_g_uvel_sd         =   3.9474265940515E-07
(PID.TID 0000.0001) %MON g__dynstat_g_uvel_del2       =   5.0918602518960E-08
(PID.TID 0000.0001) %MON g__dynstat_g_vvel_max        =   3.3601930995364E-04
(PID.TID 0000.0001) %MON g__dynstat_g_vvel_min        =  -2.7049679758494E-04
(PID.TID 0000.0001) %MON g__dynstat_g_vvel_mean       =   7.7554338365079E-09
(PID.TID 0000.0001) %MON g__dynstat_g_vvel_sd         =   7.8871630574078E-07
(PID.TID 0000.0001) %MON g__dynstat_g_vvel_del2       =   6.2796877244199E-08
(PID.TID 0000.0001) %MON g__dynstat_g_wvel_max        =   1.0011017575376E-07
(PID.TID 0000.0001) %MON g__dynstat_g_wvel_min        =  -7.5550134858863E-08
(PID.TID 0000.0001) %MON g__dynstat_g_wvel_mean       =   1.0235447841207E-27
(PID.TID 0000.0001) %MON g__dynstat_g_wvel_sd         =   4.9976710895597E-10
(PID.TID 0000.0001) %MON g__dynstat_g_wvel_del2       =   1.0135163076447E-10
(PID.TID 0000.0001) %MON g__dynstat_g_theta_max       =   5.4740916879987E-01
(PID.TID 0000.0001) %MON g__dynstat_g_theta_min       =  -9.8817039631690E-04
(PID.TID 0000.0001) %MON g__dynstat_g_theta_mean      =   2.8193983693894E-06
(PID.TID 0000.0001) %MON g__dynstat_g_theta_sd        =   8.8454827704987E-04
(PID.TID 0000.0001) %MON g__dynstat_g_theta_del2      =   3.4087026193877E-05
(PID.TID 0000.0001) %MON g__dynstat_g_salt_max        =   8.0043380445217E-03
(PID.TID 0000.0001) %MON g__dynstat_g_salt_min        =  -1.3895830460770E-02
(PID.TID 0000.0001) %MON g__dynstat_g_salt_mean       =   2.7821009606962E-09
(PID.TID 0000.0001) %MON g__dynstat_g_salt_sd         =   2.4492871467530E-05
(PID.TID 0000.0001) %MON g__dynstat_g_salt_del2       =   1.5537693103336E-06
(PID.TID 0000.0001) %MON g__dynstat_g_sst_max         =   5.4740916879987E-01
(PID.TID 0000.0001) %MON g__dynstat_g_sst_min         =  -9.1292383466965E-05
(PID.TID 0000.0001) %MON g__dynstat_g_sst_mean        =   1.2348735072897E-04
(PID.TID 0000.0001) %MON g__dynstat_g_sst_sd          =   7.0874968860644E-03
(PID.TID 0000.0001) %MON g__dynstat_g_sst_del2        =   3.1085384790386E-04
(PID.TID 0000.0001) %MON g__dynstat_g_sss_max         =   8.0043380445217E-03
(PID.TID 0000.0001) %MON g__dynstat_g_sss_min         =  -1.3895830460770E-02
(PID.TID 0000.0001) %MON g__dynstat_g_sss_mean        =   1.1524999622202E-07
(PID.TID 0000.0001) %MON g__dynstat_g_sss_sd          =   2.1119640133480E-04
(PID.TID 0000.0001) %MON g__dynstat_g_sss_del2        =   1.6461048086521E-05
(PID.TID 0000.0001) %MON g__extforcing_g_qnet_max     =   0.0000000000000E+00
(PID.TID 0000.0001) %MON g__extforcing_g_qnet_min     =   0.0000000000000E+00
(PID.TID 0000.0001) %MON g__extforcing_g_qnet_mean    =   0.0000000000000E+00
(PID.TID 0000.0001) %MON g__extforcing_g_qnet_sd      =   0.0000000000000E+00
(PID.TID 0000.0001) %MON g__extforcing_g_qnet_del2    =   0.0000000000000E+00
(PID.TID 0000.0001) %MON g__extforcing_g_empmr_max    =   0.0000000000000E+00
(PID.TID 0000.0001) %MON g__extforcing_g_empmr_min    =   0.0000000000000E+00
(PID.TID 0000.0001) %MON g__extforcing_g_empmr_mean   =   0.0000000000000E+00
(PID.TID 0000.0001) %MON g__extforcing_g_empmr_sd     =   0.0000000000000E+00
(PID.TID 0000.0001) %MON g__extforcing_g_empmr_del2   =   0.0000000000000E+00
(PID.TID 0000.0001) %MON g__extforcing_g_fu_max       =   0.0000000000000E+00
(PID.TID 0000.0001) %MON g__extforcing_g_fu_min       =   0.0000000000000E+00
(PID.TID 0000.0001) %MON g__extforcing_g_fu_mean      =   0.0000000000000E+00
(PID.TID 0000.0001) %MON g__extforcing_g_fu_sd        =   0.0000000000000E+00
(PID.TID 0000.0001) %MON g__extforcing_g_fu_del2      =   0.0000000000000E+00
(PID.TID 0000.0001) %MON g__extforcing_g_fv_max       =   0.0000000000000E+00
(PID.TID 0000.0001) %MON g__extforcing_g_fv_min       =   0.0000000000000E+00
(PID.TID 0000.0001) %MON g__extforcing_g_fv_mean      =   0.0000000000000E+00
(PID.TID 0000.0001) %MON g__extforcing_g_fv_sd        =   0.0000000000000E+00
(PID.TID 0000.0001) %MON g__extforcing_g_fv_del2      =   0.0000000000000E+00
(PID.TID 0000.0001) %MON g__g_vcfl_g_uvel_max         =   3.9372274736365E-05
(PID.TID 0000.0001) %MON g__g_vcfl_g_vvel_max         =   3.2641581411085E-05
(PID.TID 0000.0001) %MON g__g_vcfl_g_wvel_max         =   6.3547419580716E-05
(PID.TID 0000.0001) %MON g__g_vcfl_g_W_hf_max         =   1.5251380699372E-04
(PID.TID 0000.0001) // =======================================================
(PID.TID 0000.0001) // End MONITOR dynamic field statistics
(PID.TID 0000.0001) // =======================================================
 cg2d: Sum(rhs),rhsMax =   7.51011807049516E-12  1.49028848514186E-02
 cg2d: Sum(rhs),rhsMax =   2.42859204968582E-12  9.54625980631859E+00
(PID.TID 0000.0001) // =======================================================
(PID.TID 0000.0001) // Begin MONITOR dynamic field statistics
(PID.TID 0000.0001) // =======================================================
(PID.TID 0000.0001) %MON g__time_tsnumber             =                    79
(PID.TID 0000.0001) %MON g__time_secondsf             =   3.4128000000000E+06
(PID.TID 0000.0001) %MON g__dynstat_g_eta_max         =   3.6155574000554E-03
(PID.TID 0000.0001) %MON g__dynstat_g_eta_min         =  -1.9375996936333E-05
(PID.TID 0000.0001) %MON g__dynstat_g_eta_mean        =  -7.1092190481613E-18
(PID.TID 0000.0001) %MON g__dynstat_g_eta_sd          =   4.6650854641300E-05
(PID.TID 0000.0001) %MON g__dynstat_g_eta_del2        =   2.2730418771836E-06
(PID.TID 0000.0001) %MON g__dynstat_g_uvel_max        =   5.7583011557696E-05
(PID.TID 0000.0001) %MON g__dynstat_g_uvel_min        =  -1.3831791012387E-04
(PID.TID 0000.0001) %MON g__dynstat_g_uvel_mean       =   1.8849109534758E-08
(PID.TID 0000.0001) %MON g__dynstat_g_uvel_sd         =   3.9069847852195E-07
(PID.TID 0000.0001) %MON g__dynstat_g_uvel_del2       =   5.1224026860560E-08
(PID.TID 0000.0001) %MON g__dynstat_g_vvel_max        =   3.4204438337528E-04
(PID.TID 0000.0001) %MON g__dynstat_g_vvel_min        =  -2.6268420071555E-04
(PID.TID 0000.0001) %MON g__dynstat_g_vvel_mean       =   8.0331094195527E-09
(PID.TID 0000.0001) %MON g__dynstat_g_vvel_sd         =   7.8651822738600E-07
(PID.TID 0000.0001) %MON g__dynstat_g_vvel_del2       =   6.2693387653416E-08
(PID.TID 0000.0001) %MON g__dynstat_g_wvel_max        =   1.0576799248445E-07
(PID.TID 0000.0001) %MON g__dynstat_g_wvel_min        =  -7.1842612064445E-08
(PID.TID 0000.0001) %MON g__dynstat_g_wvel_mean       =  -2.1933852494733E-27
(PID.TID 0000.0001) %MON g__dynstat_g_wvel_sd         =   5.0803196374717E-10
(PID.TID 0000.0001) %MON g__dynstat_g_wvel_del2       =   1.0198309417648E-10
(PID.TID 0000.0001) %MON g__dynstat_g_theta_max       =   5.4137076618067E-01
(PID.TID 0000.0001) %MON g__dynstat_g_theta_min       =  -9.7395629679967E-04
(PID.TID 0000.0001) %MON g__dynstat_g_theta_mean      =   2.8067104244306E-06
(PID.TID 0000.0001) %MON g__dynstat_g_theta_sd        =   8.7652203150951E-04
(PID.TID 0000.0001) %MON g__dynstat_g_theta_del2      =   3.3738431664922E-05
(PID.TID 0000.0001) %MON g__dynstat_g_salt_max        =   8.0265041941597E-03
(PID.TID 0000.0001) %MON g__dynstat_g_salt_min        =  -1.3918564462243E-02
(PID.TID 0000.0001) %MON g__dynstat_g_salt_mean       =   3.1174377556802E-09
(PID.TID 0000.0001) %MON g__dynstat_g_salt_sd         =   2.4531097351693E-05
(PID.TID 0000.0001) %MON g__dynstat_g_salt_del2       =   1.5561585612834E-06
(PID.TID 0000.0001) %MON g__dynstat_g_sst_max         =   5.4137076618067E-01
(PID.TID 0000.0001) %MON g__dynstat_g_sst_min         =  -9.2131881766613E-05
(PID.TID 0000.0001) %MON g__dynstat_g_sst_mean        =   1.2246372696688E-04
(PID.TID 0000.0001) %MON g__dynstat_g_sst_sd          =   7.0136572774115E-03
(PID.TID 0000.0001) %MON g__dynstat_g_sst_del2        =   3.0703035317857E-04
(PID.TID 0000.0001) %MON g__dynstat_g_sss_max         =   8.0265041941597E-03
(PID.TID 0000.0001) %MON g__dynstat_g_sss_min         =  -1.3918564462243E-02
(PID.TID 0000.0001) %MON g__dynstat_g_sss_mean        =   1.1988203033972E-07
(PID.TID 0000.0001) %MON g__dynstat_g_sss_sd          =   2.1153161958701E-04
(PID.TID 0000.0001) %MON g__dynstat_g_sss_del2        =   1.6487099831037E-05
(PID.TID 0000.0001) %MON g__extforcing_g_qnet_max     =   0.0000000000000E+00
(PID.TID 0000.0001) %MON g__extforcing_g_qnet_min     =   0.0000000000000E+00
(PID.TID 0000.0001) %MON g__extforcing_g_qnet_mean    =   0.0000000000000E+00
(PID.TID 0000.0001) %MON g__extforcing_g_qnet_sd      =   0.0000000000000E+00
(PID.TID 0000.0001) %MON g__extforcing_g_qnet_del2    =   0.0000000000000E+00
(PID.TID 0000.0001) %MON g__extforcing_g_empmr_max    =   0.0000000000000E+00
(PID.TID 0000.0001) %MON g__extforcing_g_empmr_min    =   0.0000000000000E+00
(PID.TID 0000.0001) %MON g__extforcing_g_empmr_mean   =   0.0000000000000E+00
(PID.TID 0000.0001) %MON g__extforcing_g_empmr_sd     =   0.0000000000000E+00
(PID.TID 0000.0001) %MON g__extforcing_g_empmr_del2   =   0.0000000000000E+00
(PID.TID 0000.0001) %MON g__extforcing_g_fu_max       =   0.0000000000000E+00
(PID.TID 0000.0001) %MON g__extforcing_g_fu_min       =   0.0000000000000E+00
(PID.TID 0000.0001) %MON g__extforcing_g_fu_mean      =   0.0000000000000E+00
(PID.TID 0000.0001) %MON g__extforcing_g_fu_sd        =   0.0000000000000E+00
(PID.TID 0000.0001) %MON g__extforcing_g_fu_del2      =   0.0000000000000E+00
(PID.TID 0000.0001) %MON g__extforcing_g_fv_max       =   0.0000000000000E+00
(PID.TID 0000.0001) %MON g__extforcing_g_fv_min       =   0.0000000000000E+00
(PID.TID 0000.0001) %MON g__extforcing_g_fv_mean      =   0.0000000000000E+00
(PID.TID 0000.0001) %MON g__extforcing_g_fv_sd        =   0.0000000000000E+00
(PID.TID 0000.0001) %MON g__extforcing_g_fv_del2      =   0.0000000000000E+00
(PID.TID 0000.0001) %MON g__g_vcfl_g_uvel_max         =   3.9285627044056E-05
(PID.TID 0000.0001) %MON g__g_vcfl_g_vvel_max         =   3.3226868978717E-05
(PID.TID 0000.0001) %MON g__g_vcfl_g_wvel_max         =   6.6728174867530E-05
(PID.TID 0000.0001) %MON g__g_vcfl_g_W_hf_max         =   1.6014761968207E-04
(PID.TID 0000.0001) // =======================================================
(PID.TID 0000.0001) // End MONITOR dynamic field statistics
(PID.TID 0000.0001) // =======================================================
 cg2d: Sum(rhs),rhsMax =   7.57010193732920E-12  1.47822151862838E-02
 cg2d: Sum(rhs),rhsMax =   2.16853618395518E-12  9.44553374716872E+00
(PID.TID 0000.0001) // =======================================================
(PID.TID 0000.0001) // Begin MONITOR dynamic field statistics
(PID.TID 0000.0001) // =======================================================
(PID.TID 0000.0001) %MON g__time_tsnumber             =                    80
(PID.TID 0000.0001) %MON g__time_secondsf             =   3.4560000000000E+06
(PID.TID 0000.0001) %MON g__dynstat_g_eta_max         =   3.5871088667246E-03
(PID.TID 0000.0001) %MON g__dynstat_g_eta_min         =  -1.9613034786719E-05
(PID.TID 0000.0001) %MON g__dynstat_g_eta_mean        =  -7.0739525098475E-18
(PID.TID 0000.0001) %MON g__dynstat_g_eta_sd          =   4.6295184551136E-05
(PID.TID 0000.0001) %MON g__dynstat_g_eta_del2        =   2.2575433738495E-06
(PID.TID 0000.0001) %MON g__dynstat_g_uvel_max        =   7.0111246371434E-05
(PID.TID 0000.0001) %MON g__dynstat_g_uvel_min        =  -1.3829574312541E-04
(PID.TID 0000.0001) %MON g__dynstat_g_uvel_mean       =   1.6455492435122E-08
(PID.TID 0000.0001) %MON g__dynstat_g_uvel_sd         =   3.9017753189074E-07
(PID.TID 0000.0001) %MON g__dynstat_g_uvel_del2       =   5.1470970921357E-08
(PID.TID 0000.0001) %MON g__dynstat_g_vvel_max        =   3.4767894494680E-04
(PID.TID 0000.0001) %MON g__dynstat_g_vvel_min        =  -2.5439872594740E-04
(PID.TID 0000.0001) %MON g__dynstat_g_vvel_mean       =   8.2120928661057E-09
(PID.TID 0000.0001) %MON g__dynstat_g_vvel_sd         =   7.8401090575661E-07
(PID.TID 0000.0001) %MON g__dynstat_g_vvel_del2       =   6.2678915601222E-08
(PID.TID 0000.0001) %MON g__dynstat_g_wvel_max        =   1.1076658337721E-07
(PID.TID 0000.0001) %MON g__dynstat_g_wvel_min        =  -6.8095618813552E-08
(PID.TID 0000.0001) %MON g__dynstat_g_wvel_mean       =   8.9107369477564E-28
(PID.TID 0000.0001) %MON g__dynstat_g_wvel_sd         =   5.1755732354855E-10
(PID.TID 0000.0001) %MON g__dynstat_g_wvel_del2       =   1.0240434690890E-10
(PID.TID 0000.0001) %MON g__dynstat_g_theta_max       =   5.3578064000460E-01
(PID.TID 0000.0001) %MON g__dynstat_g_theta_min       =  -9.4120147514547E-04
(PID.TID 0000.0001) %MON g__dynstat_g_theta_mean      =   2.7970265406310E-06
(PID.TID 0000.0001) %MON g__dynstat_g_theta_sd        =   8.6936479773516E-04
(PID.TID 0000.0001) %MON g__dynstat_g_theta_del2      =   3.3430800093540E-05
(PID.TID 0000.0001) %MON g__dynstat_g_salt_max        =   8.0541024304254E-03
(PID.TID 0000.0001) %MON g__dynstat_g_salt_min        =  -1.3955101939391E-02
(PID.TID 0000.0001) %MON g__dynstat_g_salt_mean       =   3.4258193601339E-09
(PID.TID 0000.0001) %MON g__dynstat_g_salt_sd         =   2.4590809745723E-05
(PID.TID 0000.0001) %MON g__dynstat_g_salt_del2       =   1.5589745361700E-06
(PID.TID 0000.0001) %MON g__dynstat_g_sst_max         =   5.3578064000460E-01
(PID.TID 0000.0001) %MON g__dynstat_g_sst_min         =  -9.2684337924351E-05
(PID.TID 0000.0001) %MON g__dynstat_g_sst_mean        =   1.2152631381707E-04
(PID.TID 0000.0001) %MON g__dynstat_g_sst_sd          =   6.9454883620738E-03
(PID.TID 0000.0001) %MON g__dynstat_g_sst_del2        =   3.0347636883225E-04
(PID.TID 0000.0001) %MON g__dynstat_g_sss_max         =   8.0541024304254E-03
(PID.TID 0000.0001) %MON g__dynstat_g_sss_min         =  -1.3955101939391E-02
(PID.TID 0000.0001) %MON g__dynstat_g_sss_mean        =   1.2440896649149E-07
(PID.TID 0000.0001) %MON g__dynstat_g_sss_sd          =   2.1207385679887E-04
(PID.TID 0000.0001) %MON g__dynstat_g_sss_del2        =   1.6528790946270E-05
(PID.TID 0000.0001) %MON g__extforcing_g_qnet_max     =   0.0000000000000E+00
(PID.TID 0000.0001) %MON g__extforcing_g_qnet_min     =   0.0000000000000E+00
(PID.TID 0000.0001) %MON g__extforcing_g_qnet_mean    =   0.0000000000000E+00
(PID.TID 0000.0001) %MON g__extforcing_g_qnet_sd      =   0.0000000000000E+00
(PID.TID 0000.0001) %MON g__extforcing_g_qnet_del2    =   0.0000000000000E+00
(PID.TID 0000.0001) %MON g__extforcing_g_empmr_max    =   0.0000000000000E+00
(PID.TID 0000.0001) %MON g__extforcing_g_empmr_min    =   0.0000000000000E+00
(PID.TID 0000.0001) %MON g__extforcing_g_empmr_mean   =   0.0000000000000E+00
(PID.TID 0000.0001) %MON g__extforcing_g_empmr_sd     =   0.0000000000000E+00
(PID.TID 0000.0001) %MON g__extforcing_g_empmr_del2   =   0.0000000000000E+00
(PID.TID 0000.0001) %MON g__extforcing_g_fu_max       =   0.0000000000000E+00
(PID.TID 0000.0001) %MON g__extforcing_g_fu_min       =   0.0000000000000E+00
(PID.TID 0000.0001) %MON g__extforcing_g_fu_mean      =   0.0000000000000E+00
(PID.TID 0000.0001) %MON g__extforcing_g_fu_sd        =   0.0000000000000E+00
(PID.TID 0000.0001) %MON g__extforcing_g_fu_del2      =   0.0000000000000E+00
(PID.TID 0000.0001) %MON g__extforcing_g_fv_max       =   0.0000000000000E+00
(PID.TID 0000.0001) %MON g__extforcing_g_fv_min       =   0.0000000000000E+00
(PID.TID 0000.0001) %MON g__extforcing_g_fv_mean      =   0.0000000000000E+00
(PID.TID 0000.0001) %MON g__extforcing_g_fv_sd        =   0.0000000000000E+00
(PID.TID 0000.0001) %MON g__extforcing_g_fv_del2      =   0.0000000000000E+00
(PID.TID 0000.0001) %MON g__g_vcfl_g_uvel_max         =   3.9279331081128E-05
(PID.TID 0000.0001) %MON g__g_vcfl_g_vvel_max         =   3.3774221451639E-05
(PID.TID 0000.0001) %MON g__g_vcfl_g_wvel_max         =   6.9530304079681E-05
(PID.TID 0000.0001) %MON g__g_vcfl_g_W_hf_max         =   1.6687272979123E-04
(PID.TID 0000.0001) // =======================================================
(PID.TID 0000.0001) // End MONITOR dynamic field statistics
(PID.TID 0000.0001) // =======================================================
 myIter=  80
(PID.TID 0000.0001) // Model state written, timestep        80
(PID.TID 0000.0001) 
 cg2d: Sum(rhs),rhsMax =   7.58157065718533E-12  1.46866734618782E-02
 cg2d: Sum(rhs),rhsMax =   2.54526261178611E-12  9.24503765445443E+00
(PID.TID 0000.0001) // =======================================================
(PID.TID 0000.0001) // Begin MONITOR dynamic field statistics
(PID.TID 0000.0001) // =======================================================
(PID.TID 0000.0001) %MON g__time_tsnumber             =                    81
(PID.TID 0000.0001) %MON g__time_secondsf             =   3.4992000000000E+06
(PID.TID 0000.0001) %MON g__dynstat_g_eta_max         =   3.5649686799226E-03
(PID.TID 0000.0001) %MON g__dynstat_g_eta_min         =  -1.9789954215185E-05
(PID.TID 0000.0001) %MON g__dynstat_g_eta_mean        =  -7.0192723656789E-18
(PID.TID 0000.0001) %MON g__dynstat_g_eta_sd          =   4.6022939181139E-05
(PID.TID 0000.0001) %MON g__dynstat_g_eta_del2        =   2.2456076996336E-06
(PID.TID 0000.0001) %MON g__dynstat_g_uvel_max        =   8.0411178866665E-05
(PID.TID 0000.0001) %MON g__dynstat_g_uvel_min        =  -1.3853681026767E-04
(PID.TID 0000.0001) %MON g__dynstat_g_uvel_mean       =   1.3939185084125E-08
(PID.TID 0000.0001) %MON g__dynstat_g_uvel_sd         =   3.9230825954105E-07
(PID.TID 0000.0001) %MON g__dynstat_g_uvel_del2       =   5.1485085525239E-08
(PID.TID 0000.0001) %MON g__dynstat_g_vvel_max        =   3.5279487369318E-04
(PID.TID 0000.0001) %MON g__dynstat_g_vvel_min        =  -2.4579058965888E-04
(PID.TID 0000.0001) %MON g__dynstat_g_vvel_mean       =   8.2341175545704E-09
(PID.TID 0000.0001) %MON g__dynstat_g_vvel_sd         =   7.8147942952272E-07
(PID.TID 0000.0001) %MON g__dynstat_g_vvel_del2       =   6.2587450928986E-08
(PID.TID 0000.0001) %MON g__dynstat_g_wvel_max        =   1.1486708531789E-07
(PID.TID 0000.0001) %MON g__dynstat_g_wvel_min        =  -6.4593464987793E-08
(PID.TID 0000.0001) %MON g__dynstat_g_wvel_mean       =   2.3470307137335E-27
(PID.TID 0000.0001) %MON g__dynstat_g_wvel_sd         =   5.2814777953091E-10
(PID.TID 0000.0001) %MON g__dynstat_g_wvel_del2       =   1.0238862132060E-10
(PID.TID 0000.0001) %MON g__dynstat_g_theta_max       =   5.3061320840655E-01
(PID.TID 0000.0001) %MON g__dynstat_g_theta_min       =  -8.8962902767294E-04
(PID.TID 0000.0001) %MON g__dynstat_g_theta_mean      =   2.7903518974813E-06
(PID.TID 0000.0001) %MON g__dynstat_g_theta_sd        =   8.6303376410723E-04
(PID.TID 0000.0001) %MON g__dynstat_g_theta_del2      =   3.3161969876809E-05
(PID.TID 0000.0001) %MON g__dynstat_g_salt_max        =   8.0867057880356E-03
(PID.TID 0000.0001) %MON g__dynstat_g_salt_min        =  -1.4004984029869E-02
(PID.TID 0000.0001) %MON g__dynstat_g_salt_mean       =   3.6939826812947E-09
(PID.TID 0000.0001) %MON g__dynstat_g_salt_sd         =   2.4671342014839E-05
(PID.TID 0000.0001) %MON g__dynstat_g_salt_del2       =   1.5622287834009E-06
(PID.TID 0000.0001) %MON g__dynstat_g_sst_max         =   5.3061320840655E-01
(PID.TID 0000.0001) %MON g__dynstat_g_sst_min         =  -9.3003860702491E-05
(PID.TID 0000.0001) %MON g__dynstat_g_sst_mean        =   1.2067042786791E-04
(PID.TID 0000.0001) %MON g__dynstat_g_sst_sd          =   6.8826656530053E-03
(PID.TID 0000.0001) %MON g__dynstat_g_sst_del2        =   3.0017382895963E-04
(PID.TID 0000.0001) %MON g__dynstat_g_sss_max         =   8.0867057880356E-03
(PID.TID 0000.0001) %MON g__dynstat_g_sss_min         =  -1.4004984029869E-02
(PID.TID 0000.0001) %MON g__dynstat_g_sss_mean        =   1.2884568815553E-07
(PID.TID 0000.0001) %MON g__dynstat_g_sss_sd          =   2.1281545364275E-04
(PID.TID 0000.0001) %MON g__dynstat_g_sss_del2        =   1.6585380013818E-05
(PID.TID 0000.0001) %MON g__extforcing_g_qnet_max     =   0.0000000000000E+00
(PID.TID 0000.0001) %MON g__extforcing_g_qnet_min     =   0.0000000000000E+00
(PID.TID 0000.0001) %MON g__extforcing_g_qnet_mean    =   0.0000000000000E+00
(PID.TID 0000.0001) %MON g__extforcing_g_qnet_sd      =   0.0000000000000E+00
(PID.TID 0000.0001) %MON g__extforcing_g_qnet_del2    =   0.0000000000000E+00
(PID.TID 0000.0001) %MON g__extforcing_g_empmr_max    =   0.0000000000000E+00
(PID.TID 0000.0001) %MON g__extforcing_g_empmr_min    =   0.0000000000000E+00
(PID.TID 0000.0001) %MON g__extforcing_g_empmr_mean   =   0.0000000000000E+00
(PID.TID 0000.0001) %MON g__extforcing_g_empmr_sd     =   0.0000000000000E+00
(PID.TID 0000.0001) %MON g__extforcing_g_empmr_del2   =   0.0000000000000E+00
(PID.TID 0000.0001) %MON g__extforcing_g_fu_max       =   0.0000000000000E+00
(PID.TID 0000.0001) %MON g__extforcing_g_fu_min       =   0.0000000000000E+00
(PID.TID 0000.0001) %MON g__extforcing_g_fu_mean      =   0.0000000000000E+00
(PID.TID 0000.0001) %MON g__extforcing_g_fu_sd        =   0.0000000000000E+00
(PID.TID 0000.0001) %MON g__extforcing_g_fu_del2      =   0.0000000000000E+00
(PID.TID 0000.0001) %MON g__extforcing_g_fv_max       =   0.0000000000000E+00
(PID.TID 0000.0001) %MON g__extforcing_g_fv_min       =   0.0000000000000E+00
(PID.TID 0000.0001) %MON g__extforcing_g_fv_mean      =   0.0000000000000E+00
(PID.TID 0000.0001) %MON g__extforcing_g_fv_sd        =   0.0000000000000E+00
(PID.TID 0000.0001) %MON g__extforcing_g_fv_del2      =   0.0000000000000E+00
(PID.TID 0000.0001) %MON g__g_vcfl_g_uvel_max         =   3.9347799971635E-05
(PID.TID 0000.0001) %MON g__g_vcfl_g_vvel_max         =   3.4271192904534E-05
(PID.TID 0000.0001) %MON g__g_vcfl_g_wvel_max         =   7.1810737998169E-05
(PID.TID 0000.0001) %MON g__g_vcfl_g_W_hf_max         =   1.7234577119560E-04
(PID.TID 0000.0001) // =======================================================
(PID.TID 0000.0001) // End MONITOR dynamic field statistics
(PID.TID 0000.0001) // =======================================================
 cg2d: Sum(rhs),rhsMax =   7.55752844669365E-12  1.46148372846171E-02
 cg2d: Sum(rhs),rhsMax =   2.56763360573231E-12  8.95108976893283E+00
(PID.TID 0000.0001) // =======================================================
(PID.TID 0000.0001) // Begin MONITOR dynamic field statistics
(PID.TID 0000.0001) // =======================================================
(PID.TID 0000.0001) %MON g__time_tsnumber             =                    82
(PID.TID 0000.0001) %MON g__time_secondsf             =   3.5424000000000E+06
(PID.TID 0000.0001) %MON g__dynstat_g_eta_max         =   3.5488738243639E-03
(PID.TID 0000.0001) %MON g__dynstat_g_eta_min         =  -1.9899455422759E-05
(PID.TID 0000.0001) %MON g__dynstat_g_eta_mean        =  -6.9571534482943E-18
(PID.TID 0000.0001) %MON g__dynstat_g_eta_sd          =   4.5831644927745E-05
(PID.TID 0000.0001) %MON g__dynstat_g_eta_del2        =   2.2374189678484E-06
(PID.TID 0000.0001) %MON g__dynstat_g_uvel_max        =   8.8393221651815E-05
(PID.TID 0000.0001) %MON g__dynstat_g_uvel_min        =  -1.3902230262245E-04
(PID.TID 0000.0001) %MON g__dynstat_g_uvel_mean       =   1.1409555295908E-08
(PID.TID 0000.0001) %MON g__dynstat_g_uvel_sd         =   3.9612876397069E-07
(PID.TID 0000.0001) %MON g__dynstat_g_uvel_del2       =   5.1364103381934E-08
(PID.TID 0000.0001) %MON g__dynstat_g_vvel_max        =   3.5729345604221E-04
(PID.TID 0000.0001) %MON g__dynstat_g_vvel_min        =  -2.3701533470446E-04
(PID.TID 0000.0001) %MON g__dynstat_g_vvel_mean       =   8.0523806205840E-09
(PID.TID 0000.0001) %MON g__dynstat_g_vvel_sd         =   7.7917637835105E-07
(PID.TID 0000.0001) %MON g__dynstat_g_vvel_del2       =   6.2372078046967E-08
(PID.TID 0000.0001) %MON g__dynstat_g_wvel_max        =   1.1788714059230E-07
(PID.TID 0000.0001) %MON g__dynstat_g_wvel_min        =  -6.1593572165442E-08
(PID.TID 0000.0001) %MON g__dynstat_g_wvel_mean       =   1.9515423888723E-27
(PID.TID 0000.0001) %MON g__dynstat_g_wvel_sd         =   5.3942296363618E-10
(PID.TID 0000.0001) %MON g__dynstat_g_wvel_del2       =   1.0185716010544E-10
(PID.TID 0000.0001) %MON g__dynstat_g_theta_max       =   5.2582567548485E-01
(PID.TID 0000.0001) %MON g__dynstat_g_theta_min       =  -8.1984568044852E-04
(PID.TID 0000.0001) %MON g__dynstat_g_theta_mean      =   2.7865578754872E-06
(PID.TID 0000.0001) %MON g__dynstat_g_theta_sd        =   8.5745162476955E-04
(PID.TID 0000.0001) %MON g__dynstat_g_theta_del2      =   3.2928584459127E-05
(PID.TID 0000.0001) %MON g__dynstat_g_salt_max        =   8.1235889598426E-03
(PID.TID 0000.0001) %MON g__dynstat_g_salt_min        =  -1.4066974263214E-02
(PID.TID 0000.0001) %MON g__dynstat_g_salt_mean       =   3.9126203612308E-09
(PID.TID 0000.0001) %MON g__dynstat_g_salt_sd         =   2.4770866461394E-05
(PID.TID 0000.0001) %MON g__dynstat_g_salt_del2       =   1.5657814047244E-06
(PID.TID 0000.0001) %MON g__dynstat_g_sst_max         =   5.2582567548485E-01
(PID.TID 0000.0001) %MON g__dynstat_g_sst_min         =  -9.3149326445490E-05
(PID.TID 0000.0001) %MON g__dynstat_g_sst_mean        =   1.1989022153741E-04
(PID.TID 0000.0001) %MON g__dynstat_g_sst_sd          =   6.8246445698713E-03
(PID.TID 0000.0001) %MON g__dynstat_g_sst_del2        =   2.9710124450409E-04
(PID.TID 0000.0001) %MON g__dynstat_g_sss_max         =   8.1235889598426E-03
(PID.TID 0000.0001) %MON g__dynstat_g_sss_min         =  -1.4066974263214E-02
(PID.TID 0000.0001) %MON g__dynstat_g_sss_mean        =   1.3323830573601E-07
(PID.TID 0000.0001) %MON g__dynstat_g_sss_sd          =   2.1373726596967E-04
(PID.TID 0000.0001) %MON g__dynstat_g_sss_del2        =   1.6654666970197E-05
(PID.TID 0000.0001) %MON g__extforcing_g_qnet_max     =   0.0000000000000E+00
(PID.TID 0000.0001) %MON g__extforcing_g_qnet_min     =   0.0000000000000E+00
(PID.TID 0000.0001) %MON g__extforcing_g_qnet_mean    =   0.0000000000000E+00
(PID.TID 0000.0001) %MON g__extforcing_g_qnet_sd      =   0.0000000000000E+00
(PID.TID 0000.0001) %MON g__extforcing_g_qnet_del2    =   0.0000000000000E+00
(PID.TID 0000.0001) %MON g__extforcing_g_empmr_max    =   0.0000000000000E+00
(PID.TID 0000.0001) %MON g__extforcing_g_empmr_min    =   0.0000000000000E+00
(PID.TID 0000.0001) %MON g__extforcing_g_empmr_mean   =   0.0000000000000E+00
(PID.TID 0000.0001) %MON g__extforcing_g_empmr_sd     =   0.0000000000000E+00
(PID.TID 0000.0001) %MON g__extforcing_g_empmr_del2   =   0.0000000000000E+00
(PID.TID 0000.0001) %MON g__extforcing_g_fu_max       =   0.0000000000000E+00
(PID.TID 0000.0001) %MON g__extforcing_g_fu_min       =   0.0000000000000E+00
(PID.TID 0000.0001) %MON g__extforcing_g_fu_mean      =   0.0000000000000E+00
(PID.TID 0000.0001) %MON g__extforcing_g_fu_sd        =   0.0000000000000E+00
(PID.TID 0000.0001) %MON g__extforcing_g_fu_del2      =   0.0000000000000E+00
(PID.TID 0000.0001) %MON g__extforcing_g_fv_max       =   0.0000000000000E+00
(PID.TID 0000.0001) %MON g__extforcing_g_fv_min       =   0.0000000000000E+00
(PID.TID 0000.0001) %MON g__extforcing_g_fv_mean      =   0.0000000000000E+00
(PID.TID 0000.0001) %MON g__extforcing_g_fv_sd        =   0.0000000000000E+00
(PID.TID 0000.0001) %MON g__extforcing_g_fv_del2      =   0.0000000000000E+00
(PID.TID 0000.0001) %MON g__g_vcfl_g_uvel_max         =   3.9485691525705E-05
(PID.TID 0000.0001) %MON g__g_vcfl_g_vvel_max         =   3.4708194105449E-05
(PID.TID 0000.0001) %MON g__g_vcfl_g_wvel_max         =   7.3456474180124E-05
(PID.TID 0000.0001) %MON g__g_vcfl_g_W_hf_max         =   1.7629553803230E-04
(PID.TID 0000.0001) // =======================================================
(PID.TID 0000.0001) // End MONITOR dynamic field statistics
(PID.TID 0000.0001) // =======================================================
 cg2d: Sum(rhs),rhsMax =   7.52050679565615E-12  1.45640594390428E-02
 cg2d: Sum(rhs),rhsMax =   3.40433237155935E-12  8.57195997233524E+00
(PID.TID 0000.0001) // =======================================================
(PID.TID 0000.0001) // Begin MONITOR dynamic field statistics
(PID.TID 0000.0001) // =======================================================
(PID.TID 0000.0001) %MON g__time_tsnumber             =                    83
(PID.TID 0000.0001) %MON g__time_secondsf             =   3.5856000000000E+06
(PID.TID 0000.0001) %MON g__dynstat_g_eta_max         =   3.5382208032516E-03
(PID.TID 0000.0001) %MON g__dynstat_g_eta_min         =  -1.9932959798321E-05
(PID.TID 0000.0001) %MON g__dynstat_g_eta_mean        =  -6.9156407731578E-18
(PID.TID 0000.0001) %MON g__dynstat_g_eta_sd          =   4.5713912196896E-05
(PID.TID 0000.0001) %MON g__dynstat_g_eta_del2        =   2.2327034799182E-06
(PID.TID 0000.0001) %MON g__dynstat_g_uvel_max        =   9.4026162179267E-05
(PID.TID 0000.0001) %MON g__dynstat_g_uvel_min        =  -1.3973367684483E-04
(PID.TID 0000.0001) %MON g__dynstat_g_uvel_mean       =   8.9760501216727E-09
(PID.TID 0000.0001) %MON g__dynstat_g_uvel_sd         =   4.0074397639877E-07
(PID.TID 0000.0001) %MON g__dynstat_g_uvel_del2       =   5.1203738319958E-08
(PID.TID 0000.0001) %MON g__dynstat_g_vvel_max        =   3.6110123542896E-04
(PID.TID 0000.0001) %MON g__dynstat_g_vvel_min        =  -2.2823162511462E-04
(PID.TID 0000.0001) %MON g__dynstat_g_vvel_mean       =   7.6337800762280E-09
(PID.TID 0000.0001) %MON g__dynstat_g_vvel_sd         =   7.7728299390383E-07
(PID.TID 0000.0001) %MON g__dynstat_g_vvel_del2       =   6.2032261866351E-08
(PID.TID 0000.0001) %MON g__dynstat_g_wvel_max        =   1.1970793413086E-07
(PID.TID 0000.0001) %MON g__dynstat_g_wvel_min        =  -5.9309546587606E-08
(PID.TID 0000.0001) %MON g__dynstat_g_wvel_mean       =   1.3614598085928E-27
(PID.TID 0000.0001) %MON g__dynstat_g_wvel_sd         =   5.5085150190778E-10
(PID.TID 0000.0001) %MON g__dynstat_g_wvel_del2       =   1.0074741696361E-10
(PID.TID 0000.0001) %MON g__dynstat_g_theta_max       =   5.2136223587923E-01
(PID.TID 0000.0001) %MON g__dynstat_g_theta_min       =  -7.3324675100354E-04
(PID.TID 0000.0001) %MON g__dynstat_g_theta_mean      =   2.7854002204081E-06
(PID.TID 0000.0001) %MON g__dynstat_g_theta_sd        =   8.5251417908137E-04
(PID.TID 0000.0001) %MON g__dynstat_g_theta_del2      =   3.2725638000613E-05
(PID.TID 0000.0001) %MON g__dynstat_g_salt_max        =   8.1637829255723E-03
(PID.TID 0000.0001) %MON g__dynstat_g_salt_min        =  -1.4139191538022E-02
(PID.TID 0000.0001) %MON g__dynstat_g_salt_mean       =   4.0767563117189E-09
(PID.TID 0000.0001) %MON g__dynstat_g_salt_sd         =   2.4886570137309E-05
(PID.TID 0000.0001) %MON g__dynstat_g_salt_del2       =   1.5696921491084E-06
(PID.TID 0000.0001) %MON g__dynstat_g_sst_max         =   5.2136223587923E-01
(PID.TID 0000.0001) %MON g__dynstat_g_sst_min         =  -9.3178954669857E-05
(PID.TID 0000.0001) %MON g__dynstat_g_sst_mean        =   1.1917536725808E-04
(PID.TID 0000.0001) %MON g__dynstat_g_sst_sd          =   6.7707142800903E-03
(PID.TID 0000.0001) %MON g__dynstat_g_sst_del2        =   2.9422510368580E-04
(PID.TID 0000.0001) %MON g__dynstat_g_sss_max         =   8.1637829255723E-03
(PID.TID 0000.0001) %MON g__dynstat_g_sss_min         =  -1.4139191538022E-02
(PID.TID 0000.0001) %MON g__dynstat_g_sss_mean        =   1.3723831411826E-07
(PID.TID 0000.0001) %MON g__dynstat_g_sss_sd          =   2.1481062578789E-04
(PID.TID 0000.0001) %MON g__dynstat_g_sss_del2        =   1.6735561781370E-05
(PID.TID 0000.0001) %MON g__extforcing_g_qnet_max     =   0.0000000000000E+00
(PID.TID 0000.0001) %MON g__extforcing_g_qnet_min     =   0.0000000000000E+00
(PID.TID 0000.0001) %MON g__extforcing_g_qnet_mean    =   0.0000000000000E+00
(PID.TID 0000.0001) %MON g__extforcing_g_qnet_sd      =   0.0000000000000E+00
(PID.TID 0000.0001) %MON g__extforcing_g_qnet_del2    =   0.0000000000000E+00
(PID.TID 0000.0001) %MON g__extforcing_g_empmr_max    =   0.0000000000000E+00
(PID.TID 0000.0001) %MON g__extforcing_g_empmr_min    =   0.0000000000000E+00
(PID.TID 0000.0001) %MON g__extforcing_g_empmr_mean   =   0.0000000000000E+00
(PID.TID 0000.0001) %MON g__extforcing_g_empmr_sd     =   0.0000000000000E+00
(PID.TID 0000.0001) %MON g__extforcing_g_empmr_del2   =   0.0000000000000E+00
(PID.TID 0000.0001) %MON g__extforcing_g_fu_max       =   0.0000000000000E+00
(PID.TID 0000.0001) %MON g__extforcing_g_fu_min       =   0.0000000000000E+00
(PID.TID 0000.0001) %MON g__extforcing_g_fu_mean      =   0.0000000000000E+00
(PID.TID 0000.0001) %MON g__extforcing_g_fu_sd        =   0.0000000000000E+00
(PID.TID 0000.0001) %MON g__extforcing_g_fu_del2      =   0.0000000000000E+00
(PID.TID 0000.0001) %MON g__extforcing_g_fv_max       =   0.0000000000000E+00
(PID.TID 0000.0001) %MON g__extforcing_g_fv_min       =   0.0000000000000E+00
(PID.TID 0000.0001) %MON g__extforcing_g_fv_mean      =   0.0000000000000E+00
(PID.TID 0000.0001) %MON g__extforcing_g_fv_sd        =   0.0000000000000E+00
(PID.TID 0000.0001) %MON g__extforcing_g_fv_del2      =   0.0000000000000E+00
(PID.TID 0000.0001) %MON g__g_vcfl_g_uvel_max         =   3.9687738985533E-05
(PID.TID 0000.0001) %MON g__g_vcfl_g_vvel_max         =   3.5078089338151E-05
(PID.TID 0000.0001) %MON g__g_vcfl_g_wvel_max         =   7.4389773344442E-05
(PID.TID 0000.0001) %MON g__g_vcfl_g_W_hf_max         =   1.7853545602666E-04
(PID.TID 0000.0001) // =======================================================
(PID.TID 0000.0001) // End MONITOR dynamic field statistics
(PID.TID 0000.0001) // =======================================================
 cg2d: Sum(rhs),rhsMax =   7.48938924812293E-12  1.45307238565228E-02
 cg2d: Sum(rhs),rhsMax =   3.38513939102114E-12  8.11762771956998E+00
(PID.TID 0000.0001) // =======================================================
(PID.TID 0000.0001) // Begin MONITOR dynamic field statistics
(PID.TID 0000.0001) // =======================================================
(PID.TID 0000.0001) %MON g__time_tsnumber             =                    84
(PID.TID 0000.0001) %MON g__time_secondsf             =   3.6288000000000E+06
(PID.TID 0000.0001) %MON g__dynstat_g_eta_max         =   3.5321291876030E-03
(PID.TID 0000.0001) %MON g__dynstat_g_eta_min         =  -2.0095646194458E-05
(PID.TID 0000.0001) %MON g__dynstat_g_eta_mean        =  -6.8918992947025E-18
(PID.TID 0000.0001) %MON g__dynstat_g_eta_sd          =   4.5658284278115E-05
(PID.TID 0000.0001) %MON g__dynstat_g_eta_del2        =   2.2316158742862E-06
(PID.TID 0000.0001) %MON g__dynstat_g_uvel_max        =   9.7329259518281E-05
(PID.TID 0000.0001) %MON g__dynstat_g_uvel_min        =  -1.4065172116350E-04
(PID.TID 0000.0001) %MON g__dynstat_g_uvel_mean       =   6.7419784089156E-09
(PID.TID 0000.0001) %MON g__dynstat_g_uvel_sd         =   4.0544014529398E-07
(PID.TID 0000.0001) %MON g__dynstat_g_uvel_del2       =   5.0754432997078E-08
(PID.TID 0000.0001) %MON g__dynstat_g_vvel_max        =   3.6416543321193E-04
(PID.TID 0000.0001) %MON g__dynstat_g_vvel_min        =  -2.1959865652631E-04
(PID.TID 0000.0001) %MON g__dynstat_g_vvel_mean       =   6.9600767510927E-09
(PID.TID 0000.0001) %MON g__dynstat_g_vvel_sd         =   7.7588121166091E-07
(PID.TID 0000.0001) %MON g__dynstat_g_vvel_del2       =   6.1604508736923E-08
(PID.TID 0000.0001) %MON g__dynstat_g_wvel_max        =   1.2027715626843E-07
(PID.TID 0000.0001) %MON g__dynstat_g_wvel_min        =  -5.7898047254819E-08
(PID.TID 0000.0001) %MON g__dynstat_g_wvel_mean       =   3.4596478683650E-28
(PID.TID 0000.0001) %MON g__dynstat_g_wvel_sd         =   5.6183586115041E-10
(PID.TID 0000.0001) %MON g__dynstat_g_wvel_del2       =   9.9217949861551E-11
(PID.TID 0000.0001) %MON g__dynstat_g_theta_max       =   5.1715843323826E-01
(PID.TID 0000.0001) %MON g__dynstat_g_theta_min       =  -6.3189173240638E-04
(PID.TID 0000.0001) %MON g__dynstat_g_theta_mean      =   2.7865414903644E-06
(PID.TID 0000.0001) %MON g__dynstat_g_theta_sd        =   8.4809829778543E-04
(PID.TID 0000.0001) %MON g__dynstat_g_theta_del2      =   3.2546724223213E-05
(PID.TID 0000.0001) %MON g__dynstat_g_salt_max        =   8.2061452574417E-03
(PID.TID 0000.0001) %MON g__dynstat_g_salt_min        =  -1.4219260692988E-02
(PID.TID 0000.0001) %MON g__dynstat_g_salt_mean       =   4.1859039155034E-09
(PID.TID 0000.0001) %MON g__dynstat_g_salt_sd         =   2.5014856265841E-05
(PID.TID 0000.0001) %MON g__dynstat_g_salt_del2       =   1.5738191428058E-06
(PID.TID 0000.0001) %MON g__dynstat_g_sst_max         =   5.1715843323826E-01
(PID.TID 0000.0001) %MON g__dynstat_g_sst_min         =  -9.3145157969769E-05
(PID.TID 0000.0001) %MON g__dynstat_g_sst_mean        =   1.1851393507622E-04
(PID.TID 0000.0001) %MON g__dynstat_g_sst_sd          =   6.7200534591212E-03
(PID.TID 0000.0001) %MON g__dynstat_g_sst_del2        =   2.9150851848257E-04
(PID.TID 0000.0001) %MON g__dynstat_g_sss_max         =   8.2061452574417E-03
(PID.TID 0000.0001) %MON g__dynstat_g_sss_min         =  -1.4219260692988E-02
(PID.TID 0000.0001) %MON g__dynstat_g_sss_mean        =   1.4099521868390E-07
(PID.TID 0000.0001) %MON g__dynstat_g_sss_sd          =   2.1599959415366E-04
(PID.TID 0000.0001) %MON g__dynstat_g_sss_del2        =   1.6824915035213E-05
(PID.TID 0000.0001) %MON g__extforcing_g_qnet_max     =   0.0000000000000E+00
(PID.TID 0000.0001) %MON g__extforcing_g_qnet_min     =   0.0000000000000E+00
(PID.TID 0000.0001) %MON g__extforcing_g_qnet_mean    =   0.0000000000000E+00
(PID.TID 0000.0001) %MON g__extforcing_g_qnet_sd      =   0.0000000000000E+00
(PID.TID 0000.0001) %MON g__extforcing_g_qnet_del2    =   0.0000000000000E+00
(PID.TID 0000.0001) %MON g__extforcing_g_empmr_max    =   0.0000000000000E+00
(PID.TID 0000.0001) %MON g__extforcing_g_empmr_min    =   0.0000000000000E+00
(PID.TID 0000.0001) %MON g__extforcing_g_empmr_mean   =   0.0000000000000E+00
(PID.TID 0000.0001) %MON g__extforcing_g_empmr_sd     =   0.0000000000000E+00
(PID.TID 0000.0001) %MON g__extforcing_g_empmr_del2   =   0.0000000000000E+00
(PID.TID 0000.0001) %MON g__extforcing_g_fu_max       =   0.0000000000000E+00
(PID.TID 0000.0001) %MON g__extforcing_g_fu_min       =   0.0000000000000E+00
(PID.TID 0000.0001) %MON g__extforcing_g_fu_mean      =   0.0000000000000E+00
(PID.TID 0000.0001) %MON g__extforcing_g_fu_sd        =   0.0000000000000E+00
(PID.TID 0000.0001) %MON g__extforcing_g_fu_del2      =   0.0000000000000E+00
(PID.TID 0000.0001) %MON g__extforcing_g_fv_max       =   0.0000000000000E+00
(PID.TID 0000.0001) %MON g__extforcing_g_fv_min       =   0.0000000000000E+00
(PID.TID 0000.0001) %MON g__extforcing_g_fv_mean      =   0.0000000000000E+00
(PID.TID 0000.0001) %MON g__extforcing_g_fv_sd        =   0.0000000000000E+00
(PID.TID 0000.0001) %MON g__extforcing_g_fv_del2      =   0.0000000000000E+00
(PID.TID 0000.0001) %MON g__g_vcfl_g_uvel_max         =   3.9948485744074E-05
(PID.TID 0000.0001) %MON g__g_vcfl_g_vvel_max         =   3.5375751580854E-05
(PID.TID 0000.0001) %MON g__g_vcfl_g_wvel_max         =   7.4571144806160E-05
(PID.TID 0000.0001) %MON g__g_vcfl_g_W_hf_max         =   1.7897074753478E-04
(PID.TID 0000.0001) // =======================================================
(PID.TID 0000.0001) // End MONITOR dynamic field statistics
(PID.TID 0000.0001) // =======================================================
 cg2d: Sum(rhs),rhsMax =   7.47564669748959E-12  1.45105270435706E-02
 cg2d: Sum(rhs),rhsMax =   3.82306686308453E-12  8.02199626746563E+00
(PID.TID 0000.0001) // =======================================================
(PID.TID 0000.0001) // Begin MONITOR dynamic field statistics
(PID.TID 0000.0001) // =======================================================
(PID.TID 0000.0001) %MON g__time_tsnumber             =                    85
(PID.TID 0000.0001) %MON g__time_secondsf             =   3.6720000000000E+06
(PID.TID 0000.0001) %MON g__dynstat_g_eta_max         =   3.5295155130917E-03
(PID.TID 0000.0001) %MON g__dynstat_g_eta_min         =  -2.1370741493523E-05
(PID.TID 0000.0001) %MON g__dynstat_g_eta_mean        =  -6.8791937725458E-18
(PID.TID 0000.0001) %MON g__dynstat_g_eta_sd          =   4.5650286026175E-05
(PID.TID 0000.0001) %MON g__dynstat_g_eta_del2        =   2.2318026471276E-06
(PID.TID 0000.0001) %MON g__dynstat_g_uvel_max        =   9.8364763182929E-05
(PID.TID 0000.0001) %MON g__dynstat_g_uvel_min        =  -1.4175526293217E-04
(PID.TID 0000.0001) %MON g__dynstat_g_uvel_mean       =   4.7991548099457E-09
(PID.TID 0000.0001) %MON g__dynstat_g_uvel_sd         =   4.0974472965401E-07
(PID.TID 0000.0001) %MON g__dynstat_g_uvel_del2       =   5.0127523077849E-08
(PID.TID 0000.0001) %MON g__dynstat_g_vvel_max        =   3.6644947040308E-04
(PID.TID 0000.0001) %MON g__dynstat_g_vvel_min        =  -2.1127309454558E-04
(PID.TID 0000.0001) %MON g__dynstat_g_vvel_mean       =   6.0282603020062E-09
(PID.TID 0000.0001) %MON g__dynstat_g_vvel_sd         =   7.7494158392052E-07
(PID.TID 0000.0001) %MON g__dynstat_g_vvel_del2       =   6.1154182805886E-08
(PID.TID 0000.0001) %MON g__dynstat_g_wvel_max        =   1.1960819448054E-07
(PID.TID 0000.0001) %MON g__dynstat_g_wvel_min        =  -5.7450725883466E-08
(PID.TID 0000.0001) %MON g__dynstat_g_wvel_mean       =  -7.3655325634538E-28
(PID.TID 0000.0001) %MON g__dynstat_g_wvel_sd         =   5.7181097449125E-10
(PID.TID 0000.0001) %MON g__dynstat_g_wvel_del2       =   9.7906988497817E-11
(PID.TID 0000.0001) %MON g__dynstat_g_theta_max       =   5.1314544415036E-01
(PID.TID 0000.0001) %MON g__dynstat_g_theta_min       =  -5.1835006814854E-04
(PID.TID 0000.0001) %MON g__dynstat_g_theta_mean      =   2.7895733017097E-06
(PID.TID 0000.0001) %MON g__dynstat_g_theta_sd        =   8.4406988868354E-04
(PID.TID 0000.0001) %MON g__dynstat_g_theta_del2      =   3.2385355113760E-05
(PID.TID 0000.0001) %MON g__dynstat_g_salt_max        =   8.2494371659901E-03
(PID.TID 0000.0001) %MON g__dynstat_g_salt_min        =  -1.4304473095795E-02
(PID.TID 0000.0001) %MON g__dynstat_g_salt_mean       =   4.2436868630644E-09
(PID.TID 0000.0001) %MON g__dynstat_g_salt_sd         =   2.5151567808022E-05
(PID.TID 0000.0001) %MON g__dynstat_g_salt_del2       =   1.5781495409639E-06
(PID.TID 0000.0001) %MON g__dynstat_g_sst_max         =   5.1314544415036E-01
(PID.TID 0000.0001) %MON g__dynstat_g_sst_min         =  -9.3090578323034E-05
(PID.TID 0000.0001) %MON g__dynstat_g_sst_mean        =   1.1789060385867E-04
(PID.TID 0000.0001) %MON g__dynstat_g_sst_sd          =   6.6717851750265E-03
(PID.TID 0000.0001) %MON g__dynstat_g_sst_del2        =   2.8891260451974E-04
(PID.TID 0000.0001) %MON g__dynstat_g_sss_max         =   8.2494371659901E-03
(PID.TID 0000.0001) %MON g__dynstat_g_sss_min         =  -1.4304473095795E-02
(PID.TID 0000.0001) %MON g__dynstat_g_sss_mean        =   1.4430715128261E-07
(PID.TID 0000.0001) %MON g__dynstat_g_sss_sd          =   2.1726338459739E-04
(PID.TID 0000.0001) %MON g__dynstat_g_sss_del2        =   1.6920452365121E-05
(PID.TID 0000.0001) %MON g__extforcing_g_qnet_max     =   0.0000000000000E+00
(PID.TID 0000.0001) %MON g__extforcing_g_qnet_min     =   0.0000000000000E+00
(PID.TID 0000.0001) %MON g__extforcing_g_qnet_mean    =   0.0000000000000E+00
(PID.TID 0000.0001) %MON g__extforcing_g_qnet_sd      =   0.0000000000000E+00
(PID.TID 0000.0001) %MON g__extforcing_g_qnet_del2    =   0.0000000000000E+00
(PID.TID 0000.0001) %MON g__extforcing_g_empmr_max    =   0.0000000000000E+00
(PID.TID 0000.0001) %MON g__extforcing_g_empmr_min    =   0.0000000000000E+00
(PID.TID 0000.0001) %MON g__extforcing_g_empmr_mean   =   0.0000000000000E+00
(PID.TID 0000.0001) %MON g__extforcing_g_empmr_sd     =   0.0000000000000E+00
(PID.TID 0000.0001) %MON g__extforcing_g_empmr_del2   =   0.0000000000000E+00
(PID.TID 0000.0001) %MON g__extforcing_g_fu_max       =   0.0000000000000E+00
(PID.TID 0000.0001) %MON g__extforcing_g_fu_min       =   0.0000000000000E+00
(PID.TID 0000.0001) %MON g__extforcing_g_fu_mean      =   0.0000000000000E+00
(PID.TID 0000.0001) %MON g__extforcing_g_fu_sd        =   0.0000000000000E+00
(PID.TID 0000.0001) %MON g__extforcing_g_fu_del2      =   0.0000000000000E+00
(PID.TID 0000.0001) %MON g__extforcing_g_fv_max       =   0.0000000000000E+00
(PID.TID 0000.0001) %MON g__extforcing_g_fv_min       =   0.0000000000000E+00
(PID.TID 0000.0001) %MON g__extforcing_g_fv_mean      =   0.0000000000000E+00
(PID.TID 0000.0001) %MON g__extforcing_g_fv_sd        =   0.0000000000000E+00
(PID.TID 0000.0001) %MON g__extforcing_g_fv_del2      =   0.0000000000000E+00
(PID.TID 0000.0001) %MON g__g_vcfl_g_uvel_max         =   4.0261918258438E-05
(PID.TID 0000.0001) %MON g__g_vcfl_g_vvel_max         =   3.5597627478199E-05
(PID.TID 0000.0001) %MON g__g_vcfl_g_wvel_max         =   7.4000033620361E-05
(PID.TID 0000.0001) %MON g__g_vcfl_g_W_hf_max         =   1.7760008068887E-04
(PID.TID 0000.0001) // =======================================================
(PID.TID 0000.0001) // End MONITOR dynamic field statistics
(PID.TID 0000.0001) // =======================================================
 cg2d: Sum(rhs),rhsMax =   7.46756632102190E-12  1.44987706782368E-02
 cg2d: Sum(rhs),rhsMax =   3.63661878388655E-12  7.98965232758878E+00
(PID.TID 0000.0001) // =======================================================
(PID.TID 0000.0001) // Begin MONITOR dynamic field statistics
(PID.TID 0000.0001) // =======================================================
(PID.TID 0000.0001) %MON g__time_tsnumber             =                    86
(PID.TID 0000.0001) %MON g__time_secondsf             =   3.7152000000000E+06
(PID.TID 0000.0001) %MON g__dynstat_g_eta_max         =   3.5291727991333E-03
(PID.TID 0000.0001) %MON g__dynstat_g_eta_min         =  -2.2456409879549E-05
(PID.TID 0000.0001) %MON g__dynstat_g_eta_mean        =  -6.8637985581692E-18
(PID.TID 0000.0001) %MON g__dynstat_g_eta_sd          =   4.5673584300782E-05
(PID.TID 0000.0001) %MON g__dynstat_g_eta_del2        =   2.2316158856407E-06
(PID.TID 0000.0001) %MON g__dynstat_g_uvel_max        =   9.7231206040470E-05
(PID.TID 0000.0001) %MON g__dynstat_g_uvel_min        =  -1.4302044044996E-04
(PID.TID 0000.0001) %MON g__dynstat_g_uvel_mean       =   3.2234831330452E-09
(PID.TID 0000.0001) %MON g__dynstat_g_uvel_sd         =   4.1344057134896E-07
(PID.TID 0000.0001) %MON g__dynstat_g_uvel_del2       =   4.9463820079005E-08
(PID.TID 0000.0001) %MON g__dynstat_g_vvel_max        =   3.6792900577587E-04
(PID.TID 0000.0001) %MON g__dynstat_g_vvel_min        =  -2.0340527003108E-04
(PID.TID 0000.0001) %MON g__dynstat_g_vvel_mean       =   4.8498997111930E-09
(PID.TID 0000.0001) %MON g__dynstat_g_vvel_sd         =   7.7432708554914E-07
(PID.TID 0000.0001) %MON g__dynstat_g_vvel_del2       =   6.0681016890114E-08
(PID.TID 0000.0001) %MON g__dynstat_g_wvel_max        =   1.1777525895577E-07
(PID.TID 0000.0001) %MON g__dynstat_g_wvel_min        =  -5.7991023816870E-08
(PID.TID 0000.0001) %MON g__dynstat_g_wvel_mean       =  -1.8384957261023E-27
(PID.TID 0000.0001) %MON g__dynstat_g_wvel_sd         =   5.8030684312177E-10
(PID.TID 0000.0001) %MON g__dynstat_g_wvel_del2       =   9.7613970483341E-11
(PID.TID 0000.0001) %MON g__dynstat_g_theta_max       =   5.0925406454931E-01
(PID.TID 0000.0001) %MON g__dynstat_g_theta_min       =  -4.2500653448776E-04
(PID.TID 0000.0001) %MON g__dynstat_g_theta_mean      =   2.7940399904297E-06
(PID.TID 0000.0001) %MON g__dynstat_g_theta_sd        =   8.4029148821907E-04
(PID.TID 0000.0001) %MON g__dynstat_g_theta_del2      =   3.2234301016812E-05
(PID.TID 0000.0001) %MON g__dynstat_g_salt_max        =   8.2924010098619E-03
(PID.TID 0000.0001) %MON g__dynstat_g_salt_min        =  -1.4391948712610E-02
(PID.TID 0000.0001) %MON g__dynstat_g_salt_mean       =   4.2573281699614E-09
(PID.TID 0000.0001) %MON g__dynstat_g_salt_sd         =   2.5292220339233E-05
(PID.TID 0000.0001) %MON g__dynstat_g_salt_del2       =   1.5825970207014E-06
(PID.TID 0000.0001) %MON g__dynstat_g_sst_max         =   5.0925406454931E-01
(PID.TID 0000.0001) %MON g__dynstat_g_sst_min         =  -9.3045642122373E-05
(PID.TID 0000.0001) %MON g__dynstat_g_sst_mean        =   1.1729315297119E-04
(PID.TID 0000.0001) %MON g__dynstat_g_sst_sd          =   6.6250277865160E-03
(PID.TID 0000.0001) %MON g__dynstat_g_sst_del2        =   2.8639196106060E-04
(PID.TID 0000.0001) %MON g__dynstat_g_sss_max         =   8.2924010098619E-03
(PID.TID 0000.0001) %MON g__dynstat_g_sss_min         =  -1.4391948712610E-02
(PID.TID 0000.0001) %MON g__dynstat_g_sss_mean        =   1.4748219598478E-07
(PID.TID 0000.0001) %MON g__dynstat_g_sss_sd          =   2.1855879579471E-04
(PID.TID 0000.0001) %MON g__dynstat_g_sss_del2        =   1.7017952426361E-05
(PID.TID 0000.0001) %MON g__extforcing_g_qnet_max     =   0.0000000000000E+00
(PID.TID 0000.0001) %MON g__extforcing_g_qnet_min     =   0.0000000000000E+00
(PID.TID 0000.0001) %MON g__extforcing_g_qnet_mean    =   0.0000000000000E+00
(PID.TID 0000.0001) %MON g__extforcing_g_qnet_sd      =   0.0000000000000E+00
(PID.TID 0000.0001) %MON g__extforcing_g_qnet_del2    =   0.0000000000000E+00
(PID.TID 0000.0001) %MON g__extforcing_g_empmr_max    =   0.0000000000000E+00
(PID.TID 0000.0001) %MON g__extforcing_g_empmr_min    =   0.0000000000000E+00
(PID.TID 0000.0001) %MON g__extforcing_g_empmr_mean   =   0.0000000000000E+00
(PID.TID 0000.0001) %MON g__extforcing_g_empmr_sd     =   0.0000000000000E+00
(PID.TID 0000.0001) %MON g__extforcing_g_empmr_del2   =   0.0000000000000E+00
(PID.TID 0000.0001) %MON g__extforcing_g_fu_max       =   0.0000000000000E+00
(PID.TID 0000.0001) %MON g__extforcing_g_fu_min       =   0.0000000000000E+00
(PID.TID 0000.0001) %MON g__extforcing_g_fu_mean      =   0.0000000000000E+00
(PID.TID 0000.0001) %MON g__extforcing_g_fu_sd        =   0.0000000000000E+00
(PID.TID 0000.0001) %MON g__extforcing_g_fu_del2      =   0.0000000000000E+00
(PID.TID 0000.0001) %MON g__extforcing_g_fv_max       =   0.0000000000000E+00
(PID.TID 0000.0001) %MON g__extforcing_g_fv_min       =   0.0000000000000E+00
(PID.TID 0000.0001) %MON g__extforcing_g_fv_mean      =   0.0000000000000E+00
(PID.TID 0000.0001) %MON g__extforcing_g_fv_sd        =   0.0000000000000E+00
(PID.TID 0000.0001) %MON g__extforcing_g_fv_del2      =   0.0000000000000E+00
(PID.TID 0000.0001) %MON g__g_vcfl_g_uvel_max         =   4.0621259229278E-05
(PID.TID 0000.0001) %MON g__g_vcfl_g_vvel_max         =   3.5741352475218E-05
(PID.TID 0000.0001) %MON g__g_vcfl_g_wvel_max         =   7.2712891673704E-05
(PID.TID 0000.0001) %MON g__g_vcfl_g_W_hf_max         =   1.7451094001689E-04
(PID.TID 0000.0001) // =======================================================
(PID.TID 0000.0001) // End MONITOR dynamic field statistics
(PID.TID 0000.0001) // =======================================================
 cg2d: Sum(rhs),rhsMax =   7.45498532413919E-12  1.44906514981350E-02
 cg2d: Sum(rhs),rhsMax =   4.57288373834075E-12  7.95826434668650E+00
(PID.TID 0000.0001) // =======================================================
(PID.TID 0000.0001) // Begin MONITOR dynamic field statistics
(PID.TID 0000.0001) // =======================================================
(PID.TID 0000.0001) %MON g__time_tsnumber             =                    87
(PID.TID 0000.0001) %MON g__time_secondsf             =   3.7584000000000E+06
(PID.TID 0000.0001) %MON g__dynstat_g_eta_max         =   3.5298507054079E-03
(PID.TID 0000.0001) %MON g__dynstat_g_eta_min         =  -2.3426781792317E-05
(PID.TID 0000.0001) %MON g__dynstat_g_eta_mean        =  -6.8450646124990E-18
(PID.TID 0000.0001) %MON g__dynstat_g_eta_sd          =   4.5711165093521E-05
(PID.TID 0000.0001) %MON g__dynstat_g_eta_del2        =   2.2315516124646E-06
(PID.TID 0000.0001) %MON g__dynstat_g_uvel_max        =   9.4057674930253E-05
(PID.TID 0000.0001) %MON g__dynstat_g_uvel_min        =  -1.4441957014041E-04
(PID.TID 0000.0001) %MON g__dynstat_g_uvel_mean       =   2.0718316600234E-09
(PID.TID 0000.0001) %MON g__dynstat_g_uvel_sd         =   4.1654052602296E-07
(PID.TID 0000.0001) %MON g__dynstat_g_uvel_del2       =   4.8863731731470E-08
(PID.TID 0000.0001) %MON g__dynstat_g_vvel_max        =   3.6858881249972E-04
(PID.TID 0000.0001) %MON g__dynstat_g_vvel_min        =  -1.9613508322106E-04
(PID.TID 0000.0001) %MON g__dynstat_g_vvel_mean       =   3.4496381080336E-09
(PID.TID 0000.0001) %MON g__dynstat_g_vvel_sd         =   7.7381324530285E-07
(PID.TID 0000.0001) %MON g__dynstat_g_vvel_del2       =   6.0294241185038E-08
(PID.TID 0000.0001) %MON g__dynstat_g_wvel_max        =   1.1490514047412E-07
(PID.TID 0000.0001) %MON g__dynstat_g_wvel_min        =  -5.9476927582534E-08
(PID.TID 0000.0001) %MON g__dynstat_g_wvel_mean       =  -3.9303839718501E-28
(PID.TID 0000.0001) %MON g__dynstat_g_wvel_sd         =   5.8697928761559E-10
(PID.TID 0000.0001) %MON g__dynstat_g_wvel_del2       =   9.7565254435758E-11
(PID.TID 0000.0001) %MON g__dynstat_g_theta_max       =   5.0541821747737E-01
(PID.TID 0000.0001) %MON g__dynstat_g_theta_min       =  -4.3085732427132E-04
(PID.TID 0000.0001) %MON g__dynstat_g_theta_mean      =   2.7994611976449E-06
(PID.TID 0000.0001) %MON g__dynstat_g_theta_sd        =   8.3662916473495E-04
(PID.TID 0000.0001) %MON g__dynstat_g_theta_del2      =   3.2087535251725E-05
(PID.TID 0000.0001) %MON g__dynstat_g_salt_max        =   8.3338335149067E-03
(PID.TID 0000.0001) %MON g__dynstat_g_salt_min        =  -1.4478791626889E-02
(PID.TID 0000.0001) %MON g__dynstat_g_salt_mean       =   4.2368663128987E-09
(PID.TID 0000.0001) %MON g__dynstat_g_salt_sd         =   2.5432237449082E-05
(PID.TID 0000.0001) %MON g__dynstat_g_salt_del2       =   1.5879581825501E-06
(PID.TID 0000.0001) %MON g__dynstat_g_sst_max         =   5.0541821747737E-01
(PID.TID 0000.0001) %MON g__dynstat_g_sst_min         =  -9.3027712311875E-05
(PID.TID 0000.0001) %MON g__dynstat_g_sst_mean        =   1.1670539945663E-04
(PID.TID 0000.0001) %MON g__dynstat_g_sst_sd          =   6.5789399493825E-03
(PID.TID 0000.0001) %MON g__dynstat_g_sst_del2        =   2.8391207443823E-04
(PID.TID 0000.0001) %MON g__dynstat_g_sss_max         =   8.3338335149067E-03
(PID.TID 0000.0001) %MON g__dynstat_g_sss_min         =  -1.4478791626889E-02
(PID.TID 0000.0001) %MON g__dynstat_g_sss_mean        =   1.5028810613461E-07
(PID.TID 0000.0001) %MON g__dynstat_g_sss_sd          =   2.1984255205334E-04
(PID.TID 0000.0001) %MON g__dynstat_g_sss_del2        =   1.7114600377943E-05
(PID.TID 0000.0001) %MON g__extforcing_g_qnet_max     =   0.0000000000000E+00
(PID.TID 0000.0001) %MON g__extforcing_g_qnet_min     =   0.0000000000000E+00
(PID.TID 0000.0001) %MON g__extforcing_g_qnet_mean    =   0.0000000000000E+00
(PID.TID 0000.0001) %MON g__extforcing_g_qnet_sd      =   0.0000000000000E+00
(PID.TID 0000.0001) %MON g__extforcing_g_qnet_del2    =   0.0000000000000E+00
(PID.TID 0000.0001) %MON g__extforcing_g_empmr_max    =   0.0000000000000E+00
(PID.TID 0000.0001) %MON g__extforcing_g_empmr_min    =   0.0000000000000E+00
(PID.TID 0000.0001) %MON g__extforcing_g_empmr_mean   =   0.0000000000000E+00
(PID.TID 0000.0001) %MON g__extforcing_g_empmr_sd     =   0.0000000000000E+00
(PID.TID 0000.0001) %MON g__extforcing_g_empmr_del2   =   0.0000000000000E+00
(PID.TID 0000.0001) %MON g__extforcing_g_fu_max       =   0.0000000000000E+00
(PID.TID 0000.0001) %MON g__extforcing_g_fu_min       =   0.0000000000000E+00
(PID.TID 0000.0001) %MON g__extforcing_g_fu_mean      =   0.0000000000000E+00
(PID.TID 0000.0001) %MON g__extforcing_g_fu_sd        =   0.0000000000000E+00
(PID.TID 0000.0001) %MON g__extforcing_g_fu_del2      =   0.0000000000000E+00
(PID.TID 0000.0001) %MON g__extforcing_g_fv_max       =   0.0000000000000E+00
(PID.TID 0000.0001) %MON g__extforcing_g_fv_min       =   0.0000000000000E+00
(PID.TID 0000.0001) %MON g__extforcing_g_fv_mean      =   0.0000000000000E+00
(PID.TID 0000.0001) %MON g__extforcing_g_fv_sd        =   0.0000000000000E+00
(PID.TID 0000.0001) %MON g__extforcing_g_fv_del2      =   0.0000000000000E+00
(PID.TID 0000.0001) %MON g__g_vcfl_g_uvel_max         =   4.1018645852282E-05
(PID.TID 0000.0001) %MON g__g_vcfl_g_vvel_max         =   3.5805447407427E-05
(PID.TID 0000.0001) %MON g__g_vcfl_g_wvel_max         =   7.0779031257130E-05
(PID.TID 0000.0001) %MON g__g_vcfl_g_W_hf_max         =   1.6986967501711E-04
(PID.TID 0000.0001) // =======================================================
(PID.TID 0000.0001) // End MONITOR dynamic field statistics
(PID.TID 0000.0001) // =======================================================
 cg2d: Sum(rhs),rhsMax =   7.44087317544388E-12  1.44815321080683E-02
 cg2d: Sum(rhs),rhsMax =   4.17173240396806E-12  7.92999023840165E+00
(PID.TID 0000.0001) // =======================================================
(PID.TID 0000.0001) // Begin MONITOR dynamic field statistics
(PID.TID 0000.0001) // =======================================================
(PID.TID 0000.0001) %MON g__time_tsnumber             =                    88
(PID.TID 0000.0001) %MON g__time_secondsf             =   3.8016000000000E+06
(PID.TID 0000.0001) %MON g__dynstat_g_eta_max         =   3.5303313496816E-03
(PID.TID 0000.0001) %MON g__dynstat_g_eta_min         =  -2.4247335710400E-05
(PID.TID 0000.0001) %MON g__dynstat_g_eta_mean        =  -6.8394536133441E-18
(PID.TID 0000.0001) %MON g__dynstat_g_eta_sd          =   4.5746442521618E-05
(PID.TID 0000.0001) %MON g__dynstat_g_eta_del2        =   2.2301547506933E-06
(PID.TID 0000.0001) %MON g__dynstat_g_uvel_max        =   8.8999115593663E-05
(PID.TID 0000.0001) %MON g__dynstat_g_uvel_min        =  -1.4592044550436E-04
(PID.TID 0000.0001) %MON g__dynstat_g_uvel_mean       =   1.3800621236963E-09
(PID.TID 0000.0001) %MON g__dynstat_g_uvel_sd         =   4.1923863628717E-07
(PID.TID 0000.0001) %MON g__dynstat_g_uvel_del2       =   4.8490140563191E-08
(PID.TID 0000.0001) %MON g__dynstat_g_vvel_max        =   3.6842065390719E-04
(PID.TID 0000.0001) %MON g__dynstat_g_vvel_min        =  -1.8958763498665E-04
(PID.TID 0000.0001) %MON g__dynstat_g_vvel_mean       =   1.8629032424372E-09
(PID.TID 0000.0001) %MON g__dynstat_g_vvel_sd         =   7.7311826188190E-07
(PID.TID 0000.0001) %MON g__dynstat_g_vvel_del2       =   6.0109898136532E-08
(PID.TID 0000.0001) %MON g__dynstat_g_wvel_max        =   1.1116649572772E-07
(PID.TID 0000.0001) %MON g__dynstat_g_wvel_min        =  -6.1807634646969E-08
(PID.TID 0000.0001) %MON g__dynstat_g_wvel_mean       =   9.6334656122150E-29
(PID.TID 0000.0001) %MON g__dynstat_g_wvel_sd         =   5.9160916497501E-10
(PID.TID 0000.0001) %MON g__dynstat_g_wvel_del2       =   9.7674019777261E-11
(PID.TID 0000.0001) %MON g__dynstat_g_theta_max       =   5.0157786222093E-01
(PID.TID 0000.0001) %MON g__dynstat_g_theta_min       =  -4.3661811651811E-04
(PID.TID 0000.0001) %MON g__dynstat_g_theta_mean      =   2.8053527299087E-06
(PID.TID 0000.0001) %MON g__dynstat_g_theta_sd        =   8.3295849009192E-04
(PID.TID 0000.0001) %MON g__dynstat_g_theta_del2      =   3.1937931251833E-05
(PID.TID 0000.0001) %MON g__dynstat_g_salt_max        =   8.3726498310613E-03
(PID.TID 0000.0001) %MON g__dynstat_g_salt_min        =  -1.4562232429935E-02
(PID.TID 0000.0001) %MON g__dynstat_g_salt_mean       =   4.1940282399286E-09
(PID.TID 0000.0001) %MON g__dynstat_g_salt_sd         =   2.5567176433368E-05
(PID.TID 0000.0001) %MON g__dynstat_g_salt_del2       =   1.5929306372026E-06
(PID.TID 0000.0001) %MON g__dynstat_g_sst_max         =   5.0157786222093E-01
(PID.TID 0000.0001) %MON g__dynstat_g_sst_min         =  -9.3041550844160E-05
(PID.TID 0000.0001) %MON g__dynstat_g_sst_mean        =   1.1611931301309E-04
(PID.TID 0000.0001) %MON g__dynstat_g_sst_sd          =   6.5327575757854E-03
(PID.TID 0000.0001) %MON g__dynstat_g_sst_del2        =   2.8143062010046E-04
(PID.TID 0000.0001) %MON g__dynstat_g_sss_max         =   8.3726498310613E-03
(PID.TID 0000.0001) %MON g__dynstat_g_sss_min         =  -1.4562232429935E-02
(PID.TID 0000.0001) %MON g__dynstat_g_sss_mean        =   1.5363035013141E-07
(PID.TID 0000.0001) %MON g__dynstat_g_sss_sd          =   2.2107342945306E-04
(PID.TID 0000.0001) %MON g__dynstat_g_sss_del2        =   1.7206701487731E-05
(PID.TID 0000.0001) %MON g__extforcing_g_qnet_max     =   0.0000000000000E+00
(PID.TID 0000.0001) %MON g__extforcing_g_qnet_min     =   0.0000000000000E+00
(PID.TID 0000.0001) %MON g__extforcing_g_qnet_mean    =   0.0000000000000E+00
(PID.TID 0000.0001) %MON g__extforcing_g_qnet_sd      =   0.0000000000000E+00
(PID.TID 0000.0001) %MON g__extforcing_g_qnet_del2    =   0.0000000000000E+00
(PID.TID 0000.0001) %MON g__extforcing_g_empmr_max    =   0.0000000000000E+00
(PID.TID 0000.0001) %MON g__extforcing_g_empmr_min    =   0.0000000000000E+00
(PID.TID 0000.0001) %MON g__extforcing_g_empmr_mean   =   0.0000000000000E+00
(PID.TID 0000.0001) %MON g__extforcing_g_empmr_sd     =   0.0000000000000E+00
(PID.TID 0000.0001) %MON g__extforcing_g_empmr_del2   =   0.0000000000000E+00
(PID.TID 0000.0001) %MON g__extforcing_g_fu_max       =   0.0000000000000E+00
(PID.TID 0000.0001) %MON g__extforcing_g_fu_min       =   0.0000000000000E+00
(PID.TID 0000.0001) %MON g__extforcing_g_fu_mean      =   0.0000000000000E+00
(PID.TID 0000.0001) %MON g__extforcing_g_fu_sd        =   0.0000000000000E+00
(PID.TID 0000.0001) %MON g__extforcing_g_fu_del2      =   0.0000000000000E+00
(PID.TID 0000.0001) %MON g__extforcing_g_fv_max       =   0.0000000000000E+00
(PID.TID 0000.0001) %MON g__extforcing_g_fv_min       =   0.0000000000000E+00
(PID.TID 0000.0001) %MON g__extforcing_g_fv_mean      =   0.0000000000000E+00
(PID.TID 0000.0001) %MON g__extforcing_g_fv_sd        =   0.0000000000000E+00
(PID.TID 0000.0001) %MON g__extforcing_g_fv_del2      =   0.0000000000000E+00
(PID.TID 0000.0001) %MON g__g_vcfl_g_uvel_max         =   4.1444930703862E-05
(PID.TID 0000.0001) %MON g__g_vcfl_g_vvel_max         =   3.5789112148632E-05
(PID.TID 0000.0001) %MON g__g_vcfl_g_wvel_max         =   6.8294810283994E-05
(PID.TID 0000.0001) %MON g__g_vcfl_g_W_hf_max         =   1.6390754468158E-04
(PID.TID 0000.0001) // =======================================================
(PID.TID 0000.0001) // End MONITOR dynamic field statistics
(PID.TID 0000.0001) // =======================================================
 cg2d: Sum(rhs),rhsMax =   7.44246641477151E-12  1.44671789778430E-02
 cg2d: Sum(rhs),rhsMax =   3.87966048176480E-12  7.90697486204087E+00
(PID.TID 0000.0001) // =======================================================
(PID.TID 0000.0001) // Begin MONITOR dynamic field statistics
(PID.TID 0000.0001) // =======================================================
(PID.TID 0000.0001) %MON g__time_tsnumber             =                    89
(PID.TID 0000.0001) %MON g__time_secondsf             =   3.8448000000000E+06
(PID.TID 0000.0001) %MON g__dynstat_g_eta_max         =   3.5294963927984E-03
(PID.TID 0000.0001) %MON g__dynstat_g_eta_min         =  -2.4745745833368E-05
(PID.TID 0000.0001) %MON g__dynstat_g_eta_mean        =  -6.8443023564802E-18
(PID.TID 0000.0001) %MON g__dynstat_g_eta_sd          =   4.5764226215806E-05
(PID.TID 0000.0001) %MON g__dynstat_g_eta_del2        =   2.2268733602481E-06
(PID.TID 0000.0001) %MON g__dynstat_g_uvel_max        =   8.2232612930897E-05
(PID.TID 0000.0001) %MON g__dynstat_g_uvel_min        =  -1.4748611341633E-04
(PID.TID 0000.0001) %MON g__dynstat_g_uvel_mean       =   1.1622744961001E-09
(PID.TID 0000.0001) %MON g__dynstat_g_uvel_sd         =   4.2184600461225E-07
(PID.TID 0000.0001) %MON g__dynstat_g_uvel_del2       =   4.8735647236018E-08
(PID.TID 0000.0001) %MON g__dynstat_g_vvel_max        =   3.6742221647248E-04
(PID.TID 0000.0001) %MON g__dynstat_g_vvel_min        =  -1.8386890083563E-04
(PID.TID 0000.0001) %MON g__dynstat_g_vvel_mean       =   1.3305484441825E-10
(PID.TID 0000.0001) %MON g__dynstat_g_vvel_sd         =   7.7193843935992E-07
(PID.TID 0000.0001) %MON g__dynstat_g_vvel_del2       =   6.0022507909973E-08
(PID.TID 0000.0001) %MON g__dynstat_g_wvel_max        =   1.0675753814298E-07
(PID.TID 0000.0001) %MON g__dynstat_g_wvel_min        =  -6.4833851131963E-08
(PID.TID 0000.0001) %MON g__dynstat_g_wvel_mean       =   1.7620448579944E-27
(PID.TID 0000.0001) %MON g__dynstat_g_wvel_sd         =   5.9407874183956E-10
(PID.TID 0000.0001) %MON g__dynstat_g_wvel_del2       =   9.8075738994965E-11
(PID.TID 0000.0001) %MON g__dynstat_g_theta_max       =   4.9768121606953E-01
(PID.TID 0000.0001) %MON g__dynstat_g_theta_min       =  -4.4229139574317E-04
(PID.TID 0000.0001) %MON g__dynstat_g_theta_mean      =   2.8112469966933E-06
(PID.TID 0000.0001) %MON g__dynstat_g_theta_sd        =   8.2916937829711E-04
(PID.TID 0000.0001) %MON g__dynstat_g_theta_del2      =   3.1781306480826E-05
(PID.TID 0000.0001) %MON g__dynstat_g_salt_max        =   8.4079341311677E-03
(PID.TID 0000.0001) %MON g__dynstat_g_salt_min        =  -1.4639751147677E-02
(PID.TID 0000.0001) %MON g__dynstat_g_salt_mean       =   4.1413489969184E-09
(PID.TID 0000.0001) %MON g__dynstat_g_salt_sd         =   2.5692936224539E-05
(PID.TID 0000.0001) %MON g__dynstat_g_salt_del2       =   1.5974978224787E-06
(PID.TID 0000.0001) %MON g__dynstat_g_sst_max         =   4.9768121606953E-01
(PID.TID 0000.0001) %MON g__dynstat_g_sst_min         =  -9.3080997245600E-05
(PID.TID 0000.0001) %MON g__dynstat_g_sst_mean        =   1.1551234768666E-04
(PID.TID 0000.0001) %MON g__dynstat_g_sst_sd          =   6.4858226202199E-03
(PID.TID 0000.0001) %MON g__dynstat_g_sst_del2        =   2.7892433839457E-04
(PID.TID 0000.0001) %MON g__dynstat_g_sss_max         =   8.4079341311677E-03
(PID.TID 0000.0001) %MON g__dynstat_g_sss_min         =  -1.4639751147677E-02
(PID.TID 0000.0001) %MON g__dynstat_g_sss_mean        =   1.5587204419891E-07
(PID.TID 0000.0001) %MON g__dynstat_g_sss_sd          =   2.2221409730054E-04
(PID.TID 0000.0001) %MON g__dynstat_g_sss_del2        =   1.7292153082647E-05
(PID.TID 0000.0001) %MON g__extforcing_g_qnet_max     =   0.0000000000000E+00
(PID.TID 0000.0001) %MON g__extforcing_g_qnet_min     =   0.0000000000000E+00
(PID.TID 0000.0001) %MON g__extforcing_g_qnet_mean    =   0.0000000000000E+00
(PID.TID 0000.0001) %MON g__extforcing_g_qnet_sd      =   0.0000000000000E+00
(PID.TID 0000.0001) %MON g__extforcing_g_qnet_del2    =   0.0000000000000E+00
(PID.TID 0000.0001) %MON g__extforcing_g_empmr_max    =   0.0000000000000E+00
(PID.TID 0000.0001) %MON g__extforcing_g_empmr_min    =   0.0000000000000E+00
(PID.TID 0000.0001) %MON g__extforcing_g_empmr_mean   =   0.0000000000000E+00
(PID.TID 0000.0001) %MON g__extforcing_g_empmr_sd     =   0.0000000000000E+00
(PID.TID 0000.0001) %MON g__extforcing_g_empmr_del2   =   0.0000000000000E+00
(PID.TID 0000.0001) %MON g__extforcing_g_fu_max       =   0.0000000000000E+00
(PID.TID 0000.0001) %MON g__extforcing_g_fu_min       =   0.0000000000000E+00
(PID.TID 0000.0001) %MON g__extforcing_g_fu_mean      =   0.0000000000000E+00
(PID.TID 0000.0001) %MON g__extforcing_g_fu_sd        =   0.0000000000000E+00
(PID.TID 0000.0001) %MON g__extforcing_g_fu_del2      =   0.0000000000000E+00
(PID.TID 0000.0001) %MON g__extforcing_g_fv_max       =   0.0000000000000E+00
(PID.TID 0000.0001) %MON g__extforcing_g_fv_min       =   0.0000000000000E+00
(PID.TID 0000.0001) %MON g__extforcing_g_fv_mean      =   0.0000000000000E+00
(PID.TID 0000.0001) %MON g__extforcing_g_fv_sd        =   0.0000000000000E+00
(PID.TID 0000.0001) %MON g__extforcing_g_fv_del2      =   0.0000000000000E+00
(PID.TID 0000.0001) %MON g__g_vcfl_g_uvel_max         =   4.1889618203906E-05
(PID.TID 0000.0001) %MON g__g_vcfl_g_vvel_max         =   3.5692121958355E-05
(PID.TID 0000.0001) %MON g__g_vcfl_g_wvel_max         =   6.5376674408870E-05
(PID.TID 0000.0001) %MON g__g_vcfl_g_W_hf_max         =   1.5690401858129E-04
(PID.TID 0000.0001) // =======================================================
(PID.TID 0000.0001) // End MONITOR dynamic field statistics
(PID.TID 0000.0001) // =======================================================
 cg2d: Sum(rhs),rhsMax =   7.45770440620251E-12  1.44439553484512E-02
 cg2d: Sum(rhs),rhsMax =   3.09212377924695E-12  7.89125112328965E+00
(PID.TID 0000.0001) // =======================================================
(PID.TID 0000.0001) // Begin MONITOR dynamic field statistics
(PID.TID 0000.0001) // =======================================================
(PID.TID 0000.0001) %MON g__time_tsnumber             =                    90
(PID.TID 0000.0001) %MON g__time_secondsf             =   3.8880000000000E+06
(PID.TID 0000.0001) %MON g__dynstat_g_eta_max         =   3.5263817065798E-03
(PID.TID 0000.0001) %MON g__dynstat_g_eta_min         =  -2.5124403712959E-05
(PID.TID 0000.0001) %MON g__dynstat_g_eta_mean        =  -6.7788250724333E-18
(PID.TID 0000.0001) %MON g__dynstat_g_eta_sd          =   4.5751492559067E-05
(PID.TID 0000.0001) %MON g__dynstat_g_eta_del2        =   2.2219082963423E-06
(PID.TID 0000.0001) %MON g__dynstat_g_uvel_max        =   7.3954491677488E-05
(PID.TID 0000.0001) %MON g__dynstat_g_uvel_min        =  -1.4907510367457E-04
(PID.TID 0000.0001) %MON g__dynstat_g_uvel_mean       =   1.4114063774098E-09
(PID.TID 0000.0001) %MON g__dynstat_g_uvel_sd         =   4.2472056853774E-07
(PID.TID 0000.0001) %MON g__dynstat_g_uvel_del2       =   4.9130472275623E-08
(PID.TID 0000.0001) %MON g__dynstat_g_vvel_max        =   3.6559705519996E-04
(PID.TID 0000.0001) %MON g__dynstat_g_vvel_min        =  -1.7906176376524E-04
(PID.TID 0000.0001) %MON g__dynstat_g_vvel_mean       =  -1.6916634866084E-09
(PID.TID 0000.0001) %MON g__dynstat_g_vvel_sd         =   7.6998346053800E-07
(PID.TID 0000.0001) %MON g__dynstat_g_vvel_del2       =   6.0018001654488E-08
(PID.TID 0000.0001) %MON g__dynstat_g_wvel_max        =   1.0189306320640E-07
(PID.TID 0000.0001) %MON g__dynstat_g_wvel_min        =  -6.8370439803731E-08
(PID.TID 0000.0001) %MON g__dynstat_g_wvel_mean       =  -2.3670676222275E-27
(PID.TID 0000.0001) %MON g__dynstat_g_wvel_sd         =   5.9433931551854E-10
(PID.TID 0000.0001) %MON g__dynstat_g_wvel_del2       =   9.8507434523328E-11
(PID.TID 0000.0001) %MON g__dynstat_g_theta_max       =   4.9368625847135E-01
(PID.TID 0000.0001) %MON g__dynstat_g_theta_min       =  -4.4788690782254E-04
(PID.TID 0000.0001) %MON g__dynstat_g_theta_mean      =   2.8167111518098E-06
(PID.TID 0000.0001) %MON g__dynstat_g_theta_sd        =   8.2516965719369E-04
(PID.TID 0000.0001) %MON g__dynstat_g_theta_del2      =   3.1613299566763E-05
(PID.TID 0000.0001) %MON g__dynstat_g_salt_max        =   8.4389745004457E-03
(PID.TID 0000.0001) %MON g__dynstat_g_salt_min        =  -1.4709176201343E-02
(PID.TID 0000.0001) %MON g__dynstat_g_salt_mean       =   4.0911199853994E-09
(PID.TID 0000.0001) %MON g__dynstat_g_salt_sd         =   2.5805929608374E-05
(PID.TID 0000.0001) %MON g__dynstat_g_salt_del2       =   1.6015947489188E-06
(PID.TID 0000.0001) %MON g__dynstat_g_sst_max         =   4.9368625847135E-01
(PID.TID 0000.0001) %MON g__dynstat_g_sst_min         =  -9.3131618354285E-05
(PID.TID 0000.0001) %MON g__dynstat_g_sst_mean        =   1.1487896904149E-04
(PID.TID 0000.0001) %MON g__dynstat_g_sst_sd          =   6.4376016486757E-03
(PID.TID 0000.0001) %MON g__dynstat_g_sst_del2        =   2.7636657359529E-04
(PID.TID 0000.0001) %MON g__dynstat_g_sss_max         =   8.4389745004457E-03
(PID.TID 0000.0001) %MON g__dynstat_g_sss_min         =  -1.4709176201343E-02
(PID.TID 0000.0001) %MON g__dynstat_g_sss_mean        =   1.5750356713939E-07
(PID.TID 0000.0001) %MON g__dynstat_g_sss_sd          =   2.2323255486730E-04
(PID.TID 0000.0001) %MON g__dynstat_g_sss_del2        =   1.7368596029463E-05
(PID.TID 0000.0001) %MON g__extforcing_g_qnet_max     =   0.0000000000000E+00
(PID.TID 0000.0001) %MON g__extforcing_g_qnet_min     =   0.0000000000000E+00
(PID.TID 0000.0001) %MON g__extforcing_g_qnet_mean    =   0.0000000000000E+00
(PID.TID 0000.0001) %MON g__extforcing_g_qnet_sd      =   0.0000000000000E+00
(PID.TID 0000.0001) %MON g__extforcing_g_qnet_del2    =   0.0000000000000E+00
(PID.TID 0000.0001) %MON g__extforcing_g_empmr_max    =   0.0000000000000E+00
(PID.TID 0000.0001) %MON g__extforcing_g_empmr_min    =   0.0000000000000E+00
(PID.TID 0000.0001) %MON g__extforcing_g_empmr_mean   =   0.0000000000000E+00
(PID.TID 0000.0001) %MON g__extforcing_g_empmr_sd     =   0.0000000000000E+00
(PID.TID 0000.0001) %MON g__extforcing_g_empmr_del2   =   0.0000000000000E+00
(PID.TID 0000.0001) %MON g__extforcing_g_fu_max       =   0.0000000000000E+00
(PID.TID 0000.0001) %MON g__extforcing_g_fu_min       =   0.0000000000000E+00
(PID.TID 0000.0001) %MON g__extforcing_g_fu_mean      =   0.0000000000000E+00
(PID.TID 0000.0001) %MON g__extforcing_g_fu_sd        =   0.0000000000000E+00
(PID.TID 0000.0001) %MON g__extforcing_g_fu_del2      =   0.0000000000000E+00
(PID.TID 0000.0001) %MON g__extforcing_g_fv_max       =   0.0000000000000E+00
(PID.TID 0000.0001) %MON g__extforcing_g_fv_min       =   0.0000000000000E+00
(PID.TID 0000.0001) %MON g__extforcing_g_fv_mean      =   0.0000000000000E+00
(PID.TID 0000.0001) %MON g__extforcing_g_fv_sd        =   0.0000000000000E+00
(PID.TID 0000.0001) %MON g__extforcing_g_fv_del2      =   0.0000000000000E+00
(PID.TID 0000.0001) %MON g__g_vcfl_g_uvel_max         =   4.2340929813559E-05
(PID.TID 0000.0001) %MON g__g_vcfl_g_vvel_max         =   3.5514822176764E-05
(PID.TID 0000.0001) %MON g__g_vcfl_g_wvel_max         =   6.2153615396878E-05
(PID.TID 0000.0001) %MON g__g_vcfl_g_W_hf_max         =   1.4916867695251E-04
(PID.TID 0000.0001) // =======================================================
(PID.TID 0000.0001) // End MONITOR dynamic field statistics
(PID.TID 0000.0001) // =======================================================
(PID.TID 0000.0001)  MDSREADFIELD: opening global file: trenberth_taux.bin
(PID.TID 0000.0001)  MDSREADFIELD: opening global file: trenberth_taux.bin
(PID.TID 0000.0001)  MDSREADFIELD: opening global file: trenberth_tauy.bin
(PID.TID 0000.0001)  MDSREADFIELD: opening global file: trenberth_tauy.bin
(PID.TID 0000.0001)  MDSREADFIELD: opening global file: ncep_qnet.bin
(PID.TID 0000.0001)  MDSREADFIELD: opening global file: ncep_qnet.bin
(PID.TID 0000.0001)  MDSREADFIELD: opening global file: lev_sst.bin
(PID.TID 0000.0001)  MDSREADFIELD: opening global file: lev_sst.bin
(PID.TID 0000.0001)  MDSREADFIELD: opening global file: lev_sss.bin
(PID.TID 0000.0001)  MDSREADFIELD: opening global file: lev_sss.bin
 myIter=  90
(PID.TID 0000.0001) // Model state written, timestep        90
(PID.TID 0000.0001) 
 cg2d: Sum(rhs),rhsMax =   7.40537293470481E-12  1.44089605502497E-02
 cg2d: Sum(rhs),rhsMax =   4.95717356052694E-12  7.88464116714749E+00
(PID.TID 0000.0001) // =======================================================
(PID.TID 0000.0001) // Begin MONITOR dynamic field statistics
(PID.TID 0000.0001) // =======================================================
(PID.TID 0000.0001) %MON g__time_tsnumber             =                    91
(PID.TID 0000.0001) %MON g__time_secondsf             =   3.9312000000000E+06
(PID.TID 0000.0001) %MON g__dynstat_g_eta_max         =   3.5202171249779E-03
(PID.TID 0000.0001) %MON g__dynstat_g_eta_min         =  -2.5489915993056E-05
(PID.TID 0000.0001) %MON g__dynstat_g_eta_mean        =  -6.8128674902464E-18
(PID.TID 0000.0001) %MON g__dynstat_g_eta_sd          =   4.5697927507875E-05
(PID.TID 0000.0001) %MON g__dynstat_g_eta_del2        =   2.2149168122556E-06
(PID.TID 0000.0001) %MON g__dynstat_g_uvel_max        =   6.4378007062065E-05
(PID.TID 0000.0001) %MON g__dynstat_g_uvel_min        =  -1.5064211736664E-04
(PID.TID 0000.0001) %MON g__dynstat_g_uvel_mean       =   2.1003317983666E-09
(PID.TID 0000.0001) %MON g__dynstat_g_uvel_sd         =   4.2819994539358E-07
(PID.TID 0000.0001) %MON g__dynstat_g_uvel_del2       =   4.9506108284446E-08
(PID.TID 0000.0001) %MON g__dynstat_g_vvel_max        =   3.6295541033836E-04
(PID.TID 0000.0001) %MON g__dynstat_g_vvel_min        =  -1.7522271393057E-04
(PID.TID 0000.0001) %MON g__dynstat_g_vvel_mean       =  -3.5617012141347E-09
(PID.TID 0000.0001) %MON g__dynstat_g_vvel_sd         =   7.6700742088171E-07
(PID.TID 0000.0001) %MON g__dynstat_g_vvel_del2       =   6.0053112351756E-08
(PID.TID 0000.0001) %MON g__dynstat_g_wvel_max        =   9.6791652486758E-08
(PID.TID 0000.0001) %MON g__dynstat_g_wvel_min        =  -7.2210286384296E-08
(PID.TID 0000.0001) %MON g__dynstat_g_wvel_mean       =  -2.9732497272359E-27
(PID.TID 0000.0001) %MON g__dynstat_g_wvel_sd         =   5.9239130786696E-10
(PID.TID 0000.0001) %MON g__dynstat_g_wvel_del2       =   9.8814513667331E-11
(PID.TID 0000.0001) %MON g__dynstat_g_theta_max       =   4.8956153987074E-01
(PID.TID 0000.0001) %MON g__dynstat_g_theta_min       =  -4.5342134426586E-04
(PID.TID 0000.0001) %MON g__dynstat_g_theta_mean      =   2.8213585117074E-06
(PID.TID 0000.0001) %MON g__dynstat_g_theta_sd        =   8.2088736698862E-04
(PID.TID 0000.0001) %MON g__dynstat_g_theta_del2      =   3.1429824881408E-05
(PID.TID 0000.0001) %MON g__dynstat_g_salt_max        =   8.4652821131114E-03
(PID.TID 0000.0001) %MON g__dynstat_g_salt_min        =  -1.4768756836977E-02
(PID.TID 0000.0001) %MON g__dynstat_g_salt_mean       =   4.0544199654903E-09
(PID.TID 0000.0001) %MON g__dynstat_g_salt_sd         =   2.5903223292203E-05
(PID.TID 0000.0001) %MON g__dynstat_g_salt_del2       =   1.6050636593777E-06
(PID.TID 0000.0001) %MON g__dynstat_g_sst_max         =   4.8956153987074E-01
(PID.TID 0000.0001) %MON g__dynstat_g_sst_min         =  -9.3173895124160E-05
(PID.TID 0000.0001) %MON g__dynstat_g_sst_mean        =   1.1421274442840E-04
(PID.TID 0000.0001) %MON g__dynstat_g_sst_sd          =   6.3876964451623E-03
(PID.TID 0000.0001) %MON g__dynstat_g_sst_del2        =   2.7373471641299E-04
(PID.TID 0000.0001) %MON g__dynstat_g_sss_max         =   8.4652821131114E-03
(PID.TID 0000.0001) %MON g__dynstat_g_sss_min         =  -1.4768756836977E-02
(PID.TID 0000.0001) %MON g__dynstat_g_sss_mean        =   1.5894432475723E-07
(PID.TID 0000.0001) %MON g__dynstat_g_sss_sd          =   2.2410320270892E-04
(PID.TID 0000.0001) %MON g__dynstat_g_sss_del2        =   1.7433595002178E-05
(PID.TID 0000.0001) %MON g__extforcing_g_qnet_max     =   0.0000000000000E+00
(PID.TID 0000.0001) %MON g__extforcing_g_qnet_min     =   0.0000000000000E+00
(PID.TID 0000.0001) %MON g__extforcing_g_qnet_mean    =   0.0000000000000E+00
(PID.TID 0000.0001) %MON g__extforcing_g_qnet_sd      =   0.0000000000000E+00
(PID.TID 0000.0001) %MON g__extforcing_g_qnet_del2    =   0.0000000000000E+00
(PID.TID 0000.0001) %MON g__extforcing_g_empmr_max    =   0.0000000000000E+00
(PID.TID 0000.0001) %MON g__extforcing_g_empmr_min    =   0.0000000000000E+00
(PID.TID 0000.0001) %MON g__extforcing_g_empmr_mean   =   0.0000000000000E+00
(PID.TID 0000.0001) %MON g__extforcing_g_empmr_sd     =   0.0000000000000E+00
(PID.TID 0000.0001) %MON g__extforcing_g_empmr_del2   =   0.0000000000000E+00
(PID.TID 0000.0001) %MON g__extforcing_g_fu_max       =   0.0000000000000E+00
(PID.TID 0000.0001) %MON g__extforcing_g_fu_min       =   0.0000000000000E+00
(PID.TID 0000.0001) %MON g__extforcing_g_fu_mean      =   0.0000000000000E+00
(PID.TID 0000.0001) %MON g__extforcing_g_fu_sd        =   0.0000000000000E+00
(PID.TID 0000.0001) %MON g__extforcing_g_fu_del2      =   0.0000000000000E+00
(PID.TID 0000.0001) %MON g__extforcing_g_fv_max       =   0.0000000000000E+00
(PID.TID 0000.0001) %MON g__extforcing_g_fv_min       =   0.0000000000000E+00
(PID.TID 0000.0001) %MON g__extforcing_g_fv_mean      =   0.0000000000000E+00
(PID.TID 0000.0001) %MON g__extforcing_g_fv_sd        =   0.0000000000000E+00
(PID.TID 0000.0001) %MON g__extforcing_g_fv_del2      =   0.0000000000000E+00
(PID.TID 0000.0001) %MON g__g_vcfl_g_uvel_max         =   4.2785999547657E-05
(PID.TID 0000.0001) %MON g__g_vcfl_g_vvel_max         =   3.5258207561905E-05
(PID.TID 0000.0001) %MON g__g_vcfl_g_wvel_max         =   5.8759544312840E-05
(PID.TID 0000.0001) %MON g__g_vcfl_g_W_hf_max         =   1.4102290635082E-04
(PID.TID 0000.0001) // =======================================================
(PID.TID 0000.0001) // End MONITOR dynamic field statistics
(PID.TID 0000.0001) // =======================================================
 cg2d: Sum(rhs),rhsMax =   7.46673610189041E-12  1.43601121259168E-02
 cg2d: Sum(rhs),rhsMax =   4.15339984627394E-12  8.18557512400998E+00
(PID.TID 0000.0001) // =======================================================
(PID.TID 0000.0001) // Begin MONITOR dynamic field statistics
(PID.TID 0000.0001) // =======================================================
(PID.TID 0000.0001) %MON g__time_tsnumber             =                    92
(PID.TID 0000.0001) %MON g__time_secondsf             =   3.9744000000000E+06
(PID.TID 0000.0001) %MON g__dynstat_g_eta_max         =   3.5104501712480E-03
(PID.TID 0000.0001) %MON g__dynstat_g_eta_min         =  -2.5630887945153E-05
(PID.TID 0000.0001) %MON g__dynstat_g_eta_mean        =  -6.8292296677503E-18
(PID.TID 0000.0001) %MON g__dynstat_g_eta_sd          =   4.5596231649485E-05
(PID.TID 0000.0001) %MON g__dynstat_g_eta_del2        =   2.2063806877523E-06
(PID.TID 0000.0001) %MON g__dynstat_g_uvel_max        =   5.3731347521850E-05
(PID.TID 0000.0001) %MON g__dynstat_g_uvel_min        =  -1.5213914870638E-04
(PID.TID 0000.0001) %MON g__dynstat_g_uvel_mean       =   3.1843058198950E-09
(PID.TID 0000.0001) %MON g__dynstat_g_uvel_sd         =   4.3254521221985E-07
(PID.TID 0000.0001) %MON g__dynstat_g_uvel_del2       =   4.9690915962817E-08
(PID.TID 0000.0001) %MON g__dynstat_g_vvel_max        =   3.5951567571614E-04
(PID.TID 0000.0001) %MON g__dynstat_g_vvel_min        =  -1.7237947612028E-04
(PID.TID 0000.0001) %MON g__dynstat_g_vvel_mean       =  -5.4294283838801E-09
(PID.TID 0000.0001) %MON g__dynstat_g_vvel_sd         =   7.6283292039519E-07
(PID.TID 0000.0001) %MON g__dynstat_g_vvel_del2       =   6.0125131012782E-08
(PID.TID 0000.0001) %MON g__dynstat_g_wvel_max        =   9.1663816209761E-08
(PID.TID 0000.0001) %MON g__dynstat_g_wvel_min        =  -7.6138326092211E-08
(PID.TID 0000.0001) %MON g__dynstat_g_wvel_mean       =   5.2498450202807E-29
(PID.TID 0000.0001) %MON g__dynstat_g_wvel_sd         =   5.8827377908724E-10
(PID.TID 0000.0001) %MON g__dynstat_g_wvel_del2       =   9.8802501259365E-11
(PID.TID 0000.0001) %MON g__dynstat_g_theta_max       =   4.8528631939467E-01
(PID.TID 0000.0001) %MON g__dynstat_g_theta_min       =  -4.5891750217607E-04
(PID.TID 0000.0001) %MON g__dynstat_g_theta_mean      =   2.8248604156987E-06
(PID.TID 0000.0001) %MON g__dynstat_g_theta_sd        =   8.1627179730056E-04
(PID.TID 0000.0001) %MON g__dynstat_g_theta_del2      =   3.1229041670671E-05
(PID.TID 0000.0001) %MON g__dynstat_g_salt_max        =   8.4865970757456E-03
(PID.TID 0000.0001) %MON g__dynstat_g_salt_min        =  -1.4817207930107E-02
(PID.TID 0000.0001) %MON g__dynstat_g_salt_mean       =   4.0404904050685E-09
(PID.TID 0000.0001) %MON g__dynstat_g_salt_sd         =   2.5982632296394E-05
(PID.TID 0000.0001) %MON g__dynstat_g_salt_del2       =   1.6079040171172E-06
(PID.TID 0000.0001) %MON g__dynstat_g_sst_max         =   4.8528631939467E-01
(PID.TID 0000.0001) %MON g__dynstat_g_sst_min         =  -9.3186478772970E-05
(PID.TID 0000.0001) %MON g__dynstat_g_sst_mean        =   1.1351061685354E-04
(PID.TID 0000.0001) %MON g__dynstat_g_sst_sd          =   6.3358455804602E-03
(PID.TID 0000.0001) %MON g__dynstat_g_sst_del2        =   2.7102028242066E-04
(PID.TID 0000.0001) %MON g__dynstat_g_sss_max         =   8.4865970757456E-03
(PID.TID 0000.0001) %MON g__dynstat_g_sss_min         =  -1.4817207930107E-02
(PID.TID 0000.0001) %MON g__dynstat_g_sss_mean        =   1.6045449634302E-07
(PID.TID 0000.0001) %MON g__dynstat_g_sss_sd          =   2.2480748619159E-04
(PID.TID 0000.0001) %MON g__dynstat_g_sss_del2        =   1.7486018702284E-05
(PID.TID 0000.0001) %MON g__extforcing_g_qnet_max     =   0.0000000000000E+00
(PID.TID 0000.0001) %MON g__extforcing_g_qnet_min     =   0.0000000000000E+00
(PID.TID 0000.0001) %MON g__extforcing_g_qnet_mean    =   0.0000000000000E+00
(PID.TID 0000.0001) %MON g__extforcing_g_qnet_sd      =   0.0000000000000E+00
(PID.TID 0000.0001) %MON g__extforcing_g_qnet_del2    =   0.0000000000000E+00
(PID.TID 0000.0001) %MON g__extforcing_g_empmr_max    =   0.0000000000000E+00
(PID.TID 0000.0001) %MON g__extforcing_g_empmr_min    =   0.0000000000000E+00
(PID.TID 0000.0001) %MON g__extforcing_g_empmr_mean   =   0.0000000000000E+00
(PID.TID 0000.0001) %MON g__extforcing_g_empmr_sd     =   0.0000000000000E+00
(PID.TID 0000.0001) %MON g__extforcing_g_empmr_del2   =   0.0000000000000E+00
(PID.TID 0000.0001) %MON g__extforcing_g_fu_max       =   0.0000000000000E+00
(PID.TID 0000.0001) %MON g__extforcing_g_fu_min       =   0.0000000000000E+00
(PID.TID 0000.0001) %MON g__extforcing_g_fu_mean      =   0.0000000000000E+00
(PID.TID 0000.0001) %MON g__extforcing_g_fu_sd        =   0.0000000000000E+00
(PID.TID 0000.0001) %MON g__extforcing_g_fu_del2      =   0.0000000000000E+00
(PID.TID 0000.0001) %MON g__extforcing_g_fv_max       =   0.0000000000000E+00
(PID.TID 0000.0001) %MON g__extforcing_g_fv_min       =   0.0000000000000E+00
(PID.TID 0000.0001) %MON g__extforcing_g_fv_mean      =   0.0000000000000E+00
(PID.TID 0000.0001) %MON g__extforcing_g_fv_sd        =   0.0000000000000E+00
(PID.TID 0000.0001) %MON g__extforcing_g_fv_del2      =   0.0000000000000E+00
(PID.TID 0000.0001) %MON g__g_vcfl_g_uvel_max         =   4.4032855693196E-05
(PID.TID 0000.0001) %MON g__g_vcfl_g_vvel_max         =   3.4924064926711E-05
(PID.TID 0000.0001) %MON g__g_vcfl_g_wvel_max         =   5.5326033267381E-05
(PID.TID 0000.0001) %MON g__g_vcfl_g_W_hf_max         =   1.3278247984171E-04
(PID.TID 0000.0001) // =======================================================
(PID.TID 0000.0001) // End MONITOR dynamic field statistics
(PID.TID 0000.0001) // =======================================================
 cg2d: Sum(rhs),rhsMax =   7.51851940267552E-12  1.42957163491752E-02
 cg2d: Sum(rhs),rhsMax =   3.73003017362095E-12  8.65937290165752E+00
(PID.TID 0000.0001) // =======================================================
(PID.TID 0000.0001) // Begin MONITOR dynamic field statistics
(PID.TID 0000.0001) // =======================================================
(PID.TID 0000.0001) %MON g__time_tsnumber             =                    93
(PID.TID 0000.0001) %MON g__time_secondsf             =   4.0176000000000E+06
(PID.TID 0000.0001) %MON g__dynstat_g_eta_max         =   3.4966616541243E-03
(PID.TID 0000.0001) %MON g__dynstat_g_eta_min         =  -2.5583671093887E-05
(PID.TID 0000.0001) %MON g__dynstat_g_eta_mean        =  -6.8296723029268E-18
(PID.TID 0000.0001) %MON g__dynstat_g_eta_sd          =   4.5441204780392E-05
(PID.TID 0000.0001) %MON g__dynstat_g_eta_del2        =   2.1950932829253E-06
(PID.TID 0000.0001) %MON g__dynstat_g_uvel_max        =   4.2257975780688E-05
(PID.TID 0000.0001) %MON g__dynstat_g_uvel_min        =  -1.5351688800880E-04
(PID.TID 0000.0001) %MON g__dynstat_g_uvel_mean       =   4.6040647685902E-09
(PID.TID 0000.0001) %MON g__dynstat_g_uvel_sd         =   4.3789091700969E-07
(PID.TID 0000.0001) %MON g__dynstat_g_uvel_del2       =   4.9752815378843E-08
(PID.TID 0000.0001) %MON g__dynstat_g_vvel_max        =   3.5530752344561E-04
(PID.TID 0000.0001) %MON g__dynstat_g_vvel_min        =  -1.7052869347816E-04
(PID.TID 0000.0001) %MON g__dynstat_g_vvel_mean       =  -7.2517013282678E-09
(PID.TID 0000.0001) %MON g__dynstat_g_vvel_sd         =   7.5736752135574E-07
(PID.TID 0000.0001) %MON g__dynstat_g_vvel_del2       =   6.0100341137864E-08
(PID.TID 0000.0001) %MON g__dynstat_g_wvel_max        =   8.6714914707846E-08
(PID.TID 0000.0001) %MON g__dynstat_g_wvel_min        =  -7.9920505306400E-08
(PID.TID 0000.0001) %MON g__dynstat_g_wvel_mean       =  -2.6572965544321E-27
(PID.TID 0000.0001) %MON g__dynstat_g_wvel_sd         =   5.8200212147782E-10
(PID.TID 0000.0001) %MON g__dynstat_g_wvel_del2       =   9.8197273579152E-11
(PID.TID 0000.0001) %MON g__dynstat_g_theta_max       =   4.8085204164678E-01
(PID.TID 0000.0001) %MON g__dynstat_g_theta_min       =  -4.6440326662447E-04
(PID.TID 0000.0001) %MON g__dynstat_g_theta_mean      =   2.8269670425799E-06
(PID.TID 0000.0001) %MON g__dynstat_g_theta_sd        =   8.1129595726376E-04
(PID.TID 0000.0001) %MON g__dynstat_g_theta_del2      =   3.1009488522168E-05
(PID.TID 0000.0001) %MON g__dynstat_g_salt_max        =   8.5028644435348E-03
(PID.TID 0000.0001) %MON g__dynstat_g_salt_min        =  -1.4853837256755E-02
(PID.TID 0000.0001) %MON g__dynstat_g_salt_mean       =   4.0561574832226E-09
(PID.TID 0000.0001) %MON g__dynstat_g_salt_sd         =   2.6042929246273E-05
(PID.TID 0000.0001) %MON g__dynstat_g_salt_del2       =   1.6100440586235E-06
(PID.TID 0000.0001) %MON g__dynstat_g_sst_max         =   4.8085204164678E-01
(PID.TID 0000.0001) %MON g__dynstat_g_sst_min         =  -9.3148377537719E-05
(PID.TID 0000.0001) %MON g__dynstat_g_sst_mean        =   1.1277295399035E-04
(PID.TID 0000.0001) %MON g__dynstat_g_sst_sd          =   6.2819440846437E-03
(PID.TID 0000.0001) %MON g__dynstat_g_sst_del2        =   2.6821601589683E-04
(PID.TID 0000.0001) %MON g__dynstat_g_sss_max         =   8.5028644435348E-03
(PID.TID 0000.0001) %MON g__dynstat_g_sss_min         =  -1.4853837256755E-02
(PID.TID 0000.0001) %MON g__dynstat_g_sss_mean        =   1.6244312626122E-07
(PID.TID 0000.0001) %MON g__dynstat_g_sss_sd          =   2.2533556478327E-04
(PID.TID 0000.0001) %MON g__dynstat_g_sss_del2        =   1.7524535561468E-05
(PID.TID 0000.0001) %MON g__extforcing_g_qnet_max     =   0.0000000000000E+00
(PID.TID 0000.0001) %MON g__extforcing_g_qnet_min     =   0.0000000000000E+00
(PID.TID 0000.0001) %MON g__extforcing_g_qnet_mean    =   0.0000000000000E+00
(PID.TID 0000.0001) %MON g__extforcing_g_qnet_sd      =   0.0000000000000E+00
(PID.TID 0000.0001) %MON g__extforcing_g_qnet_del2    =   0.0000000000000E+00
(PID.TID 0000.0001) %MON g__extforcing_g_empmr_max    =   0.0000000000000E+00
(PID.TID 0000.0001) %MON g__extforcing_g_empmr_min    =   0.0000000000000E+00
(PID.TID 0000.0001) %MON g__extforcing_g_empmr_mean   =   0.0000000000000E+00
(PID.TID 0000.0001) %MON g__extforcing_g_empmr_sd     =   0.0000000000000E+00
(PID.TID 0000.0001) %MON g__extforcing_g_empmr_del2   =   0.0000000000000E+00
(PID.TID 0000.0001) %MON g__extforcing_g_fu_max       =   0.0000000000000E+00
(PID.TID 0000.0001) %MON g__extforcing_g_fu_min       =   0.0000000000000E+00
(PID.TID 0000.0001) %MON g__extforcing_g_fu_mean      =   0.0000000000000E+00
(PID.TID 0000.0001) %MON g__extforcing_g_fu_sd        =   0.0000000000000E+00
(PID.TID 0000.0001) %MON g__extforcing_g_fu_del2      =   0.0000000000000E+00
(PID.TID 0000.0001) %MON g__extforcing_g_fv_max       =   0.0000000000000E+00
(PID.TID 0000.0001) %MON g__extforcing_g_fv_min       =   0.0000000000000E+00
(PID.TID 0000.0001) %MON g__extforcing_g_fv_mean      =   0.0000000000000E+00
(PID.TID 0000.0001) %MON g__extforcing_g_fv_sd        =   0.0000000000000E+00
(PID.TID 0000.0001) %MON g__extforcing_g_fv_del2      =   0.0000000000000E+00
(PID.TID 0000.0001) %MON g__g_vcfl_g_uvel_max         =   4.6160324229680E-05
(PID.TID 0000.0001) %MON g__g_vcfl_g_vvel_max         =   3.4515276678954E-05
(PID.TID 0000.0001) %MON g__g_vcfl_g_wvel_max         =   5.1988794811741E-05
(PID.TID 0000.0001) %MON g__g_vcfl_g_W_hf_max         =   1.2477310754818E-04
(PID.TID 0000.0001) // =======================================================
(PID.TID 0000.0001) // End MONITOR dynamic field statistics
(PID.TID 0000.0001) // =======================================================
 cg2d: Sum(rhs),rhsMax =   7.56167207893206E-12  1.42153326851538E-02
 cg2d: Sum(rhs),rhsMax =   3.47395723299115E-12  9.08149159275096E+00
(PID.TID 0000.0001) // =======================================================
(PID.TID 0000.0001) // Begin MONITOR dynamic field statistics
(PID.TID 0000.0001) // =======================================================
(PID.TID 0000.0001) %MON g__time_tsnumber             =                    94
(PID.TID 0000.0001) %MON g__time_secondsf             =   4.0608000000000E+06
(PID.TID 0000.0001) %MON g__dynstat_g_eta_max         =   3.4787351600814E-03
(PID.TID 0000.0001) %MON g__dynstat_g_eta_min         =  -2.5657200104005E-05
(PID.TID 0000.0001) %MON g__dynstat_g_eta_mean        =  -6.8356886694777E-18
(PID.TID 0000.0001) %MON g__dynstat_g_eta_sd          =   4.5231474022629E-05
(PID.TID 0000.0001) %MON g__dynstat_g_eta_del2        =   2.1821767446053E-06
(PID.TID 0000.0001) %MON g__dynstat_g_uvel_max        =   3.0208815413589E-05
(PID.TID 0000.0001) %MON g__dynstat_g_uvel_min        =  -1.5472696910704E-04
(PID.TID 0000.0001) %MON g__dynstat_g_uvel_mean       =   6.2886372604351E-09
(PID.TID 0000.0001) %MON g__dynstat_g_uvel_sd         =   4.4425261096585E-07
(PID.TID 0000.0001) %MON g__dynstat_g_uvel_del2       =   4.9721658695821E-08
(PID.TID 0000.0001) %MON g__dynstat_g_vvel_max        =   3.5037120037977E-04
(PID.TID 0000.0001) %MON g__dynstat_g_vvel_min        =  -1.6963674777136E-04
(PID.TID 0000.0001) %MON g__dynstat_g_vvel_mean       =  -8.9929239655009E-09
(PID.TID 0000.0001) %MON g__dynstat_g_vvel_sd         =   7.5061061821759E-07
(PID.TID 0000.0001) %MON g__dynstat_g_vvel_del2       =   5.9922609748355E-08
(PID.TID 0000.0001) %MON g__dynstat_g_wvel_max        =   8.2092893909970E-08
(PID.TID 0000.0001) %MON g__dynstat_g_wvel_min        =  -8.3390623766410E-08
(PID.TID 0000.0001) %MON g__dynstat_g_wvel_mean       =  -6.4748088583461E-29
(PID.TID 0000.0001) %MON g__dynstat_g_wvel_sd         =   5.7376679590064E-10
(PID.TID 0000.0001) %MON g__dynstat_g_wvel_del2       =   9.7012677383469E-11
(PID.TID 0000.0001) %MON g__dynstat_g_theta_max       =   4.7625832205250E-01
(PID.TID 0000.0001) %MON g__dynstat_g_theta_min       =  -4.6990926056100E-04
(PID.TID 0000.0001) %MON g__dynstat_g_theta_mean      =   2.8274846873996E-06
(PID.TID 0000.0001) %MON g__dynstat_g_theta_sd        =   8.0595103821092E-04
(PID.TID 0000.0001) %MON g__dynstat_g_theta_del2      =   3.0772467168866E-05
(PID.TID 0000.0001) %MON g__dynstat_g_salt_max        =   8.5142644400739E-03
(PID.TID 0000.0001) %MON g__dynstat_g_salt_min        =  -1.4878359058143E-02
(PID.TID 0000.0001) %MON g__dynstat_g_salt_mean       =   4.1053145106974E-09
(PID.TID 0000.0001) %MON g__dynstat_g_salt_sd         =   2.6083575213664E-05
(PID.TID 0000.0001) %MON g__dynstat_g_salt_del2       =   1.6116335881180E-06
(PID.TID 0000.0001) %MON g__dynstat_g_sst_max         =   4.7625832205250E-01
(PID.TID 0000.0001) %MON g__dynstat_g_sst_min         =  -9.3044756992673E-05
(PID.TID 0000.0001) %MON g__dynstat_g_sst_mean        =   1.1199384955745E-04
(PID.TID 0000.0001) %MON g__dynstat_g_sst_sd          =   6.2259907179560E-03
(PID.TID 0000.0001) %MON g__dynstat_g_sst_del2        =   2.6533147583787E-04
(PID.TID 0000.0001) %MON g__dynstat_g_sss_max         =   8.5142644400739E-03
(PID.TID 0000.0001) %MON g__dynstat_g_sss_min         =  -1.4878359058143E-02
(PID.TID 0000.0001) %MON g__dynstat_g_sss_mean        =   1.6425063885793E-07
(PID.TID 0000.0001) %MON g__dynstat_g_sss_sd          =   2.2568379612536E-04
(PID.TID 0000.0001) %MON g__dynstat_g_sss_del2        =   1.7549976461569E-05
(PID.TID 0000.0001) %MON g__extforcing_g_qnet_max     =   0.0000000000000E+00
(PID.TID 0000.0001) %MON g__extforcing_g_qnet_min     =   0.0000000000000E+00
(PID.TID 0000.0001) %MON g__extforcing_g_qnet_mean    =   0.0000000000000E+00
(PID.TID 0000.0001) %MON g__extforcing_g_qnet_sd      =   0.0000000000000E+00
(PID.TID 0000.0001) %MON g__extforcing_g_qnet_del2    =   0.0000000000000E+00
(PID.TID 0000.0001) %MON g__extforcing_g_empmr_max    =   0.0000000000000E+00
(PID.TID 0000.0001) %MON g__extforcing_g_empmr_min    =   0.0000000000000E+00
(PID.TID 0000.0001) %MON g__extforcing_g_empmr_mean   =   0.0000000000000E+00
(PID.TID 0000.0001) %MON g__extforcing_g_empmr_sd     =   0.0000000000000E+00
(PID.TID 0000.0001) %MON g__extforcing_g_empmr_del2   =   0.0000000000000E+00
(PID.TID 0000.0001) %MON g__extforcing_g_fu_max       =   0.0000000000000E+00
(PID.TID 0000.0001) %MON g__extforcing_g_fu_min       =   0.0000000000000E+00
(PID.TID 0000.0001) %MON g__extforcing_g_fu_mean      =   0.0000000000000E+00
(PID.TID 0000.0001) %MON g__extforcing_g_fu_sd        =   0.0000000000000E+00
(PID.TID 0000.0001) %MON g__extforcing_g_fu_del2      =   0.0000000000000E+00
(PID.TID 0000.0001) %MON g__extforcing_g_fv_max       =   0.0000000000000E+00
(PID.TID 0000.0001) %MON g__extforcing_g_fv_min       =   0.0000000000000E+00
(PID.TID 0000.0001) %MON g__extforcing_g_fv_mean      =   0.0000000000000E+00
(PID.TID 0000.0001) %MON g__extforcing_g_fv_sd        =   0.0000000000000E+00
(PID.TID 0000.0001) %MON g__extforcing_g_fv_del2      =   0.0000000000000E+00
(PID.TID 0000.0001) %MON g__g_vcfl_g_uvel_max         =   4.7985045723168E-05
(PID.TID 0000.0001) %MON g__g_vcfl_g_vvel_max         =   3.4035752477659E-05
(PID.TID 0000.0001) %MON g__g_vcfl_g_wvel_max         =   5.2639555192499E-05
(PID.TID 0000.0001) %MON g__g_vcfl_g_W_hf_max         =   1.2633493246200E-04
(PID.TID 0000.0001) // =======================================================
(PID.TID 0000.0001) // End MONITOR dynamic field statistics
(PID.TID 0000.0001) // =======================================================
 cg2d: Sum(rhs),rhsMax =   7.61967073892458E-12  1.41193656654066E-02
 cg2d: Sum(rhs),rhsMax =   2.86847628983011E-12  9.44424370111450E+00
(PID.TID 0000.0001) // =======================================================
(PID.TID 0000.0001) // Begin MONITOR dynamic field statistics
(PID.TID 0000.0001) // =======================================================
(PID.TID 0000.0001) %MON g__time_tsnumber             =                    95
(PID.TID 0000.0001) %MON g__time_secondsf             =   4.1040000000000E+06
(PID.TID 0000.0001) %MON g__dynstat_g_eta_max         =   3.4567733411169E-03
(PID.TID 0000.0001) %MON g__dynstat_g_eta_min         =  -2.5849746013162E-05
(PID.TID 0000.0001) %MON g__dynstat_g_eta_mean        =  -6.8640438861504E-18
(PID.TID 0000.0001) %MON g__dynstat_g_eta_sd          =   4.4968535376792E-05
(PID.TID 0000.0001) %MON g__dynstat_g_eta_del2        =   2.1688264461423E-06
(PID.TID 0000.0001) %MON g__dynstat_g_uvel_max        =   3.1141906778587E-05
(PID.TID 0000.0001) %MON g__dynstat_g_uvel_min        =  -1.5572355847514E-04
(PID.TID 0000.0001) %MON g__dynstat_g_uvel_mean       =   8.1591167912741E-09
(PID.TID 0000.0001) %MON g__dynstat_g_uvel_sd         =   4.5151253128515E-07
(PID.TID 0000.0001) %MON g__dynstat_g_uvel_del2       =   4.9489969171620E-08
(PID.TID 0000.0001) %MON g__dynstat_g_vvel_max        =   3.4476009361262E-04
(PID.TID 0000.0001) %MON g__dynstat_g_vvel_min        =  -1.6964192672071E-04
(PID.TID 0000.0001) %MON g__dynstat_g_vvel_mean       =  -1.0626496309178E-08
(PID.TID 0000.0001) %MON g__dynstat_g_vvel_sd         =   7.4265277165198E-07
(PID.TID 0000.0001) %MON g__dynstat_g_vvel_del2       =   5.9575599146536E-08
(PID.TID 0000.0001) %MON g__dynstat_g_wvel_max        =   7.7930038635053E-08
(PID.TID 0000.0001) %MON g__dynstat_g_wvel_min        =  -8.6388603436042E-08
(PID.TID 0000.0001) %MON g__dynstat_g_wvel_mean       =   7.5597768292041E-29
(PID.TID 0000.0001) %MON g__dynstat_g_wvel_sd         =   5.6382837101059E-10
(PID.TID 0000.0001) %MON g__dynstat_g_wvel_del2       =   9.5368418369906E-11
(PID.TID 0000.0001) %MON g__dynstat_g_theta_max       =   4.7151300988779E-01
(PID.TID 0000.0001) %MON g__dynstat_g_theta_min       =  -4.7546815896214E-04
(PID.TID 0000.0001) %MON g__dynstat_g_theta_mean      =   2.8262900550879E-06
(PID.TID 0000.0001) %MON g__dynstat_g_theta_sd        =   8.0024617647866E-04
(PID.TID 0000.0001) %MON g__dynstat_g_theta_del2      =   3.0517531502047E-05
(PID.TID 0000.0001) %MON g__dynstat_g_salt_max        =   8.5211501063082E-03
(PID.TID 0000.0001) %MON g__dynstat_g_salt_min        =  -1.4890923703543E-02
(PID.TID 0000.0001) %MON g__dynstat_g_salt_mean       =   4.1891128475960E-09
(PID.TID 0000.0001) %MON g__dynstat_g_salt_sd         =   2.6104782024421E-05
(PID.TID 0000.0001) %MON g__dynstat_g_salt_del2       =   1.6126133855250E-06
(PID.TID 0000.0001) %MON g__dynstat_g_sst_max         =   4.7151300988779E-01
(PID.TID 0000.0001) %MON g__dynstat_g_sst_min         =  -9.2865069867902E-05
(PID.TID 0000.0001) %MON g__dynstat_g_sst_mean        =   1.1117674704568E-04
(PID.TID 0000.0001) %MON g__dynstat_g_sst_sd          =   6.1680894613277E-03
(PID.TID 0000.0001) %MON g__dynstat_g_sst_del2        =   2.6236334851816E-04
(PID.TID 0000.0001) %MON g__dynstat_g_sss_max         =   8.5211501063082E-03
(PID.TID 0000.0001) %MON g__dynstat_g_sss_min         =  -1.4890923703543E-02
(PID.TID 0000.0001) %MON g__dynstat_g_sss_mean        =   1.6630846290967E-07
(PID.TID 0000.0001) %MON g__dynstat_g_sss_sd          =   2.2585511980143E-04
(PID.TID 0000.0001) %MON g__dynstat_g_sss_del2        =   1.7561714879500E-05
(PID.TID 0000.0001) %MON g__extforcing_g_qnet_max     =   0.0000000000000E+00
(PID.TID 0000.0001) %MON g__extforcing_g_qnet_min     =   0.0000000000000E+00
(PID.TID 0000.0001) %MON g__extforcing_g_qnet_mean    =   0.0000000000000E+00
(PID.TID 0000.0001) %MON g__extforcing_g_qnet_sd      =   0.0000000000000E+00
(PID.TID 0000.0001) %MON g__extforcing_g_qnet_del2    =   0.0000000000000E+00
(PID.TID 0000.0001) %MON g__extforcing_g_empmr_max    =   0.0000000000000E+00
(PID.TID 0000.0001) %MON g__extforcing_g_empmr_min    =   0.0000000000000E+00
(PID.TID 0000.0001) %MON g__extforcing_g_empmr_mean   =   0.0000000000000E+00
(PID.TID 0000.0001) %MON g__extforcing_g_empmr_sd     =   0.0000000000000E+00
(PID.TID 0000.0001) %MON g__extforcing_g_empmr_del2   =   0.0000000000000E+00
(PID.TID 0000.0001) %MON g__extforcing_g_fu_max       =   0.0000000000000E+00
(PID.TID 0000.0001) %MON g__extforcing_g_fu_min       =   0.0000000000000E+00
(PID.TID 0000.0001) %MON g__extforcing_g_fu_mean      =   0.0000000000000E+00
(PID.TID 0000.0001) %MON g__extforcing_g_fu_sd        =   0.0000000000000E+00
(PID.TID 0000.0001) %MON g__extforcing_g_fu_del2      =   0.0000000000000E+00
(PID.TID 0000.0001) %MON g__extforcing_g_fv_max       =   0.0000000000000E+00
(PID.TID 0000.0001) %MON g__extforcing_g_fv_min       =   0.0000000000000E+00
(PID.TID 0000.0001) %MON g__extforcing_g_fv_mean      =   0.0000000000000E+00
(PID.TID 0000.0001) %MON g__extforcing_g_fv_sd        =   0.0000000000000E+00
(PID.TID 0000.0001) %MON g__extforcing_g_fv_del2      =   0.0000000000000E+00
(PID.TID 0000.0001) %MON g__g_vcfl_g_uvel_max         =   4.9435705255475E-05
(PID.TID 0000.0001) %MON g__g_vcfl_g_vvel_max         =   3.3490678450897E-05
(PID.TID 0000.0001) %MON g__g_vcfl_g_wvel_max         =   5.4589781276145E-05
(PID.TID 0000.0001) %MON g__g_vcfl_g_W_hf_max         =   1.3101547506275E-04
(PID.TID 0000.0001) // =======================================================
(PID.TID 0000.0001) // End MONITOR dynamic field statistics
(PID.TID 0000.0001) // =======================================================
 cg2d: Sum(rhs),rhsMax =   7.71184082813280E-12  1.40088772593212E-02
 cg2d: Sum(rhs),rhsMax =   3.05269698408495E-12  9.74175914288520E+00
(PID.TID 0000.0001) // =======================================================
(PID.TID 0000.0001) // Begin MONITOR dynamic field statistics
(PID.TID 0000.0001) // =======================================================
(PID.TID 0000.0001) %MON g__time_tsnumber             =                    96
(PID.TID 0000.0001) %MON g__time_secondsf             =   4.1472000000000E+06
(PID.TID 0000.0001) %MON g__dynstat_g_eta_max         =   3.4310539164089E-03
(PID.TID 0000.0001) %MON g__dynstat_g_eta_min         =  -2.5949286671767E-05
(PID.TID 0000.0001) %MON g__dynstat_g_eta_mean        =  -6.9257119371306E-18
(PID.TID 0000.0001) %MON g__dynstat_g_eta_sd          =   4.4656195605064E-05
(PID.TID 0000.0001) %MON g__dynstat_g_eta_del2        =   2.1549590151868E-06
(PID.TID 0000.0001) %MON g__dynstat_g_uvel_max        =   3.2027920599027E-05
(PID.TID 0000.0001) %MON g__dynstat_g_uvel_min        =  -1.5646487336267E-04
(PID.TID 0000.0001) %MON g__dynstat_g_uvel_mean       =   1.0132270772841E-08
(PID.TID 0000.0001) %MON g__dynstat_g_uvel_sd         =   4.5943769031958E-07
(PID.TID 0000.0001) %MON g__dynstat_g_uvel_del2       =   4.9048311905116E-08
(PID.TID 0000.0001) %MON g__dynstat_g_vvel_max        =   3.3854216926404E-04
(PID.TID 0000.0001) %MON g__dynstat_g_vvel_min        =  -1.7045682391759E-04
(PID.TID 0000.0001) %MON g__dynstat_g_vvel_mean       =  -1.2135967479030E-08
(PID.TID 0000.0001) %MON g__dynstat_g_vvel_sd         =   7.3366779265487E-07
(PID.TID 0000.0001) %MON g__dynstat_g_vvel_del2       =   5.9093936715831E-08
(PID.TID 0000.0001) %MON g__dynstat_g_wvel_max        =   7.4326990147649E-08
(PID.TID 0000.0001) %MON g__dynstat_g_wvel_min        =  -8.8781886627083E-08
(PID.TID 0000.0001) %MON g__dynstat_g_wvel_mean       =  -5.8903261127549E-28
(PID.TID 0000.0001) %MON g__dynstat_g_wvel_sd         =   5.5254459640806E-10
(PID.TID 0000.0001) %MON g__dynstat_g_wvel_del2       =   9.3321776800332E-11
(PID.TID 0000.0001) %MON g__dynstat_g_theta_max       =   4.6663086232916E-01
(PID.TID 0000.0001) %MON g__dynstat_g_theta_min       =  -4.8111148150145E-04
(PID.TID 0000.0001) %MON g__dynstat_g_theta_mean      =   2.8233251982366E-06
(PID.TID 0000.0001) %MON g__dynstat_g_theta_sd        =   7.9420617442890E-04
(PID.TID 0000.0001) %MON g__dynstat_g_theta_del2      =   3.0246512134238E-05
(PID.TID 0000.0001) %MON g__dynstat_g_salt_max        =   8.5240233739664E-03
(PID.TID 0000.0001) %MON g__dynstat_g_salt_min        =  -1.4892083521963E-02
(PID.TID 0000.0001) %MON g__dynstat_g_salt_mean       =   4.3058653027752E-09
(PID.TID 0000.0001) %MON g__dynstat_g_salt_sd         =   2.6107449013124E-05
(PID.TID 0000.0001) %MON g__dynstat_g_salt_del2       =   1.6130654734772E-06
(PID.TID 0000.0001) %MON g__dynstat_g_sst_max         =   4.6663086232916E-01
(PID.TID 0000.0001) %MON g__dynstat_g_sst_min         =  -9.2605457900719E-05
(PID.TID 0000.0001) %MON g__dynstat_g_sst_mean        =   1.1032509037147E-04
(PID.TID 0000.0001) %MON g__dynstat_g_sst_sd          =   6.1084322792776E-03
(PID.TID 0000.0001) %MON g__dynstat_g_sst_del2        =   2.5932392445166E-04
(PID.TID 0000.0001) %MON g__dynstat_g_sss_max         =   8.5240233739664E-03
(PID.TID 0000.0001) %MON g__dynstat_g_sss_min         =  -1.4892083521963E-02
(PID.TID 0000.0001) %MON g__dynstat_g_sss_mean        =   1.6829215118120E-07
(PID.TID 0000.0001) %MON g__dynstat_g_sss_sd          =   2.2585847183394E-04
(PID.TID 0000.0001) %MON g__dynstat_g_sss_del2        =   1.7560822712117E-05
(PID.TID 0000.0001) %MON g__extforcing_g_qnet_max     =   0.0000000000000E+00
(PID.TID 0000.0001) %MON g__extforcing_g_qnet_min     =   0.0000000000000E+00
(PID.TID 0000.0001) %MON g__extforcing_g_qnet_mean    =   0.0000000000000E+00
(PID.TID 0000.0001) %MON g__extforcing_g_qnet_sd      =   0.0000000000000E+00
(PID.TID 0000.0001) %MON g__extforcing_g_qnet_del2    =   0.0000000000000E+00
(PID.TID 0000.0001) %MON g__extforcing_g_empmr_max    =   0.0000000000000E+00
(PID.TID 0000.0001) %MON g__extforcing_g_empmr_min    =   0.0000000000000E+00
(PID.TID 0000.0001) %MON g__extforcing_g_empmr_mean   =   0.0000000000000E+00
(PID.TID 0000.0001) %MON g__extforcing_g_empmr_sd     =   0.0000000000000E+00
(PID.TID 0000.0001) %MON g__extforcing_g_empmr_del2   =   0.0000000000000E+00
(PID.TID 0000.0001) %MON g__extforcing_g_fu_max       =   0.0000000000000E+00
(PID.TID 0000.0001) %MON g__extforcing_g_fu_min       =   0.0000000000000E+00
(PID.TID 0000.0001) %MON g__extforcing_g_fu_mean      =   0.0000000000000E+00
(PID.TID 0000.0001) %MON g__extforcing_g_fu_sd        =   0.0000000000000E+00
(PID.TID 0000.0001) %MON g__extforcing_g_fu_del2      =   0.0000000000000E+00
(PID.TID 0000.0001) %MON g__extforcing_g_fv_max       =   0.0000000000000E+00
(PID.TID 0000.0001) %MON g__extforcing_g_fv_min       =   0.0000000000000E+00
(PID.TID 0000.0001) %MON g__extforcing_g_fv_mean      =   0.0000000000000E+00
(PID.TID 0000.0001) %MON g__extforcing_g_fv_sd        =   0.0000000000000E+00
(PID.TID 0000.0001) %MON g__extforcing_g_fv_del2      =   0.0000000000000E+00
(PID.TID 0000.0001) %MON g__g_vcfl_g_uvel_max         =   5.0458802167895E-05
(PID.TID 0000.0001) %MON g__g_vcfl_g_vvel_max         =   3.2886656962191E-05
(PID.TID 0000.0001) %MON g__g_vcfl_g_wvel_max         =   5.6182724296391E-05
(PID.TID 0000.0001) %MON g__g_vcfl_g_W_hf_max         =   1.3483853831134E-04
(PID.TID 0000.0001) // =======================================================
(PID.TID 0000.0001) // End MONITOR dynamic field statistics
(PID.TID 0000.0001) // =======================================================
 cg2d: Sum(rhs),rhsMax =   7.84948068271795E-12  1.38854219223417E-02
 cg2d: Sum(rhs),rhsMax =   2.91269786067971E-12  9.97004063040943E+00
(PID.TID 0000.0001) // =======================================================
(PID.TID 0000.0001) // Begin MONITOR dynamic field statistics
(PID.TID 0000.0001) // =======================================================
(PID.TID 0000.0001) %MON g__time_tsnumber             =                    97
(PID.TID 0000.0001) %MON g__time_secondsf             =   4.1904000000000E+06
(PID.TID 0000.0001) %MON g__dynstat_g_eta_max         =   3.4019874144967E-03
(PID.TID 0000.0001) %MON g__dynstat_g_eta_min         =  -2.5967190228347E-05
(PID.TID 0000.0001) %MON g__dynstat_g_eta_mean        =  -7.0163641274118E-18
(PID.TID 0000.0001) %MON g__dynstat_g_eta_sd          =   4.4300018631900E-05
(PID.TID 0000.0001) %MON g__dynstat_g_eta_del2        =   2.1401791852882E-06
(PID.TID 0000.0001) %MON g__dynstat_g_uvel_max        =   3.2490228840395E-05
(PID.TID 0000.0001) %MON g__dynstat_g_uvel_min        =  -1.5691502322031E-04
(PID.TID 0000.0001) %MON g__dynstat_g_uvel_mean       =   1.2124153691405E-08
(PID.TID 0000.0001) %MON g__dynstat_g_uvel_sd         =   4.6770361956005E-07
(PID.TID 0000.0001) %MON g__dynstat_g_uvel_del2       =   4.8427506567745E-08
(PID.TID 0000.0001) %MON g__dynstat_g_vvel_max        =   3.3180083153795E-04
(PID.TID 0000.0001) %MON g__dynstat_g_vvel_min        =  -1.7197173567930E-04
(PID.TID 0000.0001) %MON g__dynstat_g_vvel_mean       =  -1.3515066257368E-08
(PID.TID 0000.0001) %MON g__dynstat_g_vvel_sd         =   7.2389785999635E-07
(PID.TID 0000.0001) %MON g__dynstat_g_vvel_del2       =   5.8608244314228E-08
(PID.TID 0000.0001) %MON g__dynstat_g_wvel_max        =   7.1347598661118E-08
(PID.TID 0000.0001) %MON g__dynstat_g_wvel_min        =  -9.0471820843013E-08
(PID.TID 0000.0001) %MON g__dynstat_g_wvel_mean       =   2.2140346398864E-27
(PID.TID 0000.0001) %MON g__dynstat_g_wvel_sd         =   5.4036401707956E-10
(PID.TID 0000.0001) %MON g__dynstat_g_wvel_del2       =   9.0928867568430E-11
(PID.TID 0000.0001) %MON g__dynstat_g_theta_max       =   4.6163210458555E-01
(PID.TID 0000.0001) %MON g__dynstat_g_theta_min       =  -4.8686786159945E-04
(PID.TID 0000.0001) %MON g__dynstat_g_theta_mean      =   2.8185960656013E-06
(PID.TID 0000.0001) %MON g__dynstat_g_theta_sd        =   7.8786879498374E-04
(PID.TID 0000.0001) %MON g__dynstat_g_theta_del2      =   2.9960756694109E-05
(PID.TID 0000.0001) %MON g__dynstat_g_salt_max        =   8.5234986930651E-03
(PID.TID 0000.0001) %MON g__dynstat_g_salt_min        =  -1.4882737361025E-02
(PID.TID 0000.0001) %MON g__dynstat_g_salt_mean       =   4.4514057209201E-09
(PID.TID 0000.0001) %MON g__dynstat_g_salt_sd         =   2.6093068750660E-05
(PID.TID 0000.0001) %MON g__dynstat_g_salt_del2       =   1.6129877058691E-06
(PID.TID 0000.0001) %MON g__dynstat_g_sst_max         =   4.6163210458555E-01
(PID.TID 0000.0001) %MON g__dynstat_g_sst_min         =  -9.2269152570621E-05
(PID.TID 0000.0001) %MON g__dynstat_g_sst_mean        =   1.0944355106890E-04
(PID.TID 0000.0001) %MON g__dynstat_g_sst_sd          =   6.0472806090783E-03
(PID.TID 0000.0001) %MON g__dynstat_g_sst_del2        =   2.5622241565322E-04
(PID.TID 0000.0001) %MON g__dynstat_g_sss_max         =   8.5234986930651E-03
(PID.TID 0000.0001) %MON g__dynstat_g_sss_min         =  -1.4882737361025E-02
(PID.TID 0000.0001) %MON g__dynstat_g_sss_mean        =   1.7047314930903E-07
(PID.TID 0000.0001) %MON g__dynstat_g_sss_sd          =   2.2570792262253E-04
(PID.TID 0000.0001) %MON g__dynstat_g_sss_del2        =   1.7548129191918E-05
(PID.TID 0000.0001) %MON g__extforcing_g_qnet_max     =   0.0000000000000E+00
(PID.TID 0000.0001) %MON g__extforcing_g_qnet_min     =   0.0000000000000E+00
(PID.TID 0000.0001) %MON g__extforcing_g_qnet_mean    =   0.0000000000000E+00
(PID.TID 0000.0001) %MON g__extforcing_g_qnet_sd      =   0.0000000000000E+00
(PID.TID 0000.0001) %MON g__extforcing_g_qnet_del2    =   0.0000000000000E+00
(PID.TID 0000.0001) %MON g__extforcing_g_empmr_max    =   0.0000000000000E+00
(PID.TID 0000.0001) %MON g__extforcing_g_empmr_min    =   0.0000000000000E+00
(PID.TID 0000.0001) %MON g__extforcing_g_empmr_mean   =   0.0000000000000E+00
(PID.TID 0000.0001) %MON g__extforcing_g_empmr_sd     =   0.0000000000000E+00
(PID.TID 0000.0001) %MON g__extforcing_g_empmr_del2   =   0.0000000000000E+00
(PID.TID 0000.0001) %MON g__extforcing_g_fu_max       =   0.0000000000000E+00
(PID.TID 0000.0001) %MON g__extforcing_g_fu_min       =   0.0000000000000E+00
(PID.TID 0000.0001) %MON g__extforcing_g_fu_mean      =   0.0000000000000E+00
(PID.TID 0000.0001) %MON g__extforcing_g_fu_sd        =   0.0000000000000E+00
(PID.TID 0000.0001) %MON g__extforcing_g_fu_del2      =   0.0000000000000E+00
(PID.TID 0000.0001) %MON g__extforcing_g_fv_max       =   0.0000000000000E+00
(PID.TID 0000.0001) %MON g__extforcing_g_fv_min       =   0.0000000000000E+00
(PID.TID 0000.0001) %MON g__extforcing_g_fv_mean      =   0.0000000000000E+00
(PID.TID 0000.0001) %MON g__extforcing_g_fv_sd        =   0.0000000000000E+00
(PID.TID 0000.0001) %MON g__extforcing_g_fv_del2      =   0.0000000000000E+00
(PID.TID 0000.0001) %MON g__g_vcfl_g_uvel_max         =   5.1019566629072E-05
(PID.TID 0000.0001) %MON g__g_vcfl_g_vvel_max         =   3.2231790061131E-05
(PID.TID 0000.0001) %MON g__g_vcfl_g_wvel_max         =   5.7348555354572E-05
(PID.TID 0000.0001) %MON g__g_vcfl_g_W_hf_max         =   1.3763653285097E-04
(PID.TID 0000.0001) // =======================================================
(PID.TID 0000.0001) // End MONITOR dynamic field statistics
(PID.TID 0000.0001) // =======================================================
 cg2d: Sum(rhs),rhsMax =   8.02990821181608E-12  1.37509131308452E-02
 cg2d: Sum(rhs),rhsMax =   3.26926680171979E-12  1.01269749889254E+01
(PID.TID 0000.0001) // =======================================================
(PID.TID 0000.0001) // Begin MONITOR dynamic field statistics
(PID.TID 0000.0001) // =======================================================
(PID.TID 0000.0001) %MON g__time_tsnumber             =                    98
(PID.TID 0000.0001) %MON g__time_secondsf             =   4.2336000000000E+06
(PID.TID 0000.0001) %MON g__dynstat_g_eta_max         =   3.3700800450990E-03
(PID.TID 0000.0001) %MON g__dynstat_g_eta_min         =  -2.6294892486285E-05
(PID.TID 0000.0001) %MON g__dynstat_g_eta_mean        =  -7.1252072226607E-18
(PID.TID 0000.0001) %MON g__dynstat_g_eta_sd          =   4.3906822506470E-05
(PID.TID 0000.0001) %MON g__dynstat_g_eta_del2        =   2.1252698877317E-06
(PID.TID 0000.0001) %MON g__dynstat_g_uvel_max        =   3.2511348051333E-05
(PID.TID 0000.0001) %MON g__dynstat_g_uvel_min        =  -1.5704545929023E-04
(PID.TID 0000.0001) %MON g__dynstat_g_uvel_mean       =   1.4053663348568E-08
(PID.TID 0000.0001) %MON g__dynstat_g_uvel_sd         =   4.7592120763235E-07
(PID.TID 0000.0001) %MON g__dynstat_g_uvel_del2       =   4.7648192191309E-08
(PID.TID 0000.0001) %MON g__dynstat_g_vvel_max        =   3.2463479035912E-04
(PID.TID 0000.0001) %MON g__dynstat_g_vvel_min        =  -1.7405877950305E-04
(PID.TID 0000.0001) %MON g__dynstat_g_vvel_mean       =  -1.4767240242483E-08
(PID.TID 0000.0001) %MON g__dynstat_g_vvel_sd         =   7.1363308780587E-07
(PID.TID 0000.0001) %MON g__dynstat_g_vvel_del2       =   5.8135498078826E-08
(PID.TID 0000.0001) %MON g__dynstat_g_wvel_max        =   6.9019233114651E-08
(PID.TID 0000.0001) %MON g__dynstat_g_wvel_min        =  -9.1398365935201E-08
(PID.TID 0000.0001) %MON g__dynstat_g_wvel_mean       =  -3.2052053797153E-27
(PID.TID 0000.0001) %MON g__dynstat_g_wvel_sd         =   5.2780626519493E-10
(PID.TID 0000.0001) %MON g__dynstat_g_wvel_del2       =   8.8321143278685E-11
(PID.TID 0000.0001) %MON g__dynstat_g_theta_max       =   4.5654096274657E-01
(PID.TID 0000.0001) %MON g__dynstat_g_theta_min       =  -4.9276139784809E-04
(PID.TID 0000.0001) %MON g__dynstat_g_theta_mean      =   2.8121654200009E-06
(PID.TID 0000.0001) %MON g__dynstat_g_theta_sd        =   7.8128184973606E-04
(PID.TID 0000.0001) %MON g__dynstat_g_theta_del2      =   2.9662145491492E-05
(PID.TID 0000.0001) %MON g__dynstat_g_salt_max        =   8.5202663656580E-03
(PID.TID 0000.0001) %MON g__dynstat_g_salt_min        =  -1.4864067608278E-02
(PID.TID 0000.0001) %MON g__dynstat_g_salt_mean       =   4.6193888669451E-09
(PID.TID 0000.0001) %MON g__dynstat_g_salt_sd         =   2.6063615390383E-05
(PID.TID 0000.0001) %MON g__dynstat_g_salt_del2       =   1.6123944072361E-06
(PID.TID 0000.0001) %MON g__dynstat_g_sst_max         =   4.5654096274657E-01
(PID.TID 0000.0001) %MON g__dynstat_g_sst_min         =  -9.1865544171500E-05
(PID.TID 0000.0001) %MON g__dynstat_g_sst_mean        =   1.0853680776483E-04
(PID.TID 0000.0001) %MON g__dynstat_g_sst_sd          =   5.9849465615736E-03
(PID.TID 0000.0001) %MON g__dynstat_g_sst_del2        =   2.5307294171759E-04
(PID.TID 0000.0001) %MON g__dynstat_g_sss_max         =   8.5202663656580E-03
(PID.TID 0000.0001) %MON g__dynstat_g_sss_min         =  -1.4864067608278E-02
(PID.TID 0000.0001) %MON g__dynstat_g_sss_mean        =   1.7277455202023E-07
(PID.TID 0000.0001) %MON g__dynstat_g_sss_sd          =   2.2542169992965E-04
(PID.TID 0000.0001) %MON g__dynstat_g_sss_del2        =   1.7524632979116E-05
(PID.TID 0000.0001) %MON g__extforcing_g_qnet_max     =   0.0000000000000E+00
(PID.TID 0000.0001) %MON g__extforcing_g_qnet_min     =   0.0000000000000E+00
(PID.TID 0000.0001) %MON g__extforcing_g_qnet_mean    =   0.0000000000000E+00
(PID.TID 0000.0001) %MON g__extforcing_g_qnet_sd      =   0.0000000000000E+00
(PID.TID 0000.0001) %MON g__extforcing_g_qnet_del2    =   0.0000000000000E+00
(PID.TID 0000.0001) %MON g__extforcing_g_empmr_max    =   0.0000000000000E+00
(PID.TID 0000.0001) %MON g__extforcing_g_empmr_min    =   0.0000000000000E+00
(PID.TID 0000.0001) %MON g__extforcing_g_empmr_mean   =   0.0000000000000E+00
(PID.TID 0000.0001) %MON g__extforcing_g_empmr_sd     =   0.0000000000000E+00
(PID.TID 0000.0001) %MON g__extforcing_g_empmr_del2   =   0.0000000000000E+00
(PID.TID 0000.0001) %MON g__extforcing_g_fu_max       =   0.0000000000000E+00
(PID.TID 0000.0001) %MON g__extforcing_g_fu_min       =   0.0000000000000E+00
(PID.TID 0000.0001) %MON g__extforcing_g_fu_mean      =   0.0000000000000E+00
(PID.TID 0000.0001) %MON g__extforcing_g_fu_sd        =   0.0000000000000E+00
(PID.TID 0000.0001) %MON g__extforcing_g_fu_del2      =   0.0000000000000E+00
(PID.TID 0000.0001) %MON g__extforcing_g_fv_max       =   0.0000000000000E+00
(PID.TID 0000.0001) %MON g__extforcing_g_fv_min       =   0.0000000000000E+00
(PID.TID 0000.0001) %MON g__extforcing_g_fv_mean      =   0.0000000000000E+00
(PID.TID 0000.0001) %MON g__extforcing_g_fv_sd        =   0.0000000000000E+00
(PID.TID 0000.0001) %MON g__extforcing_g_fv_del2      =   0.0000000000000E+00
(PID.TID 0000.0001) %MON g__g_vcfl_g_uvel_max         =   5.1101900541720E-05
(PID.TID 0000.0001) %MON g__g_vcfl_g_vvel_max         =   3.1535666625349E-05
(PID.TID 0000.0001) %MON g__g_vcfl_g_wvel_max         =   5.8042419263312E-05
(PID.TID 0000.0001) %MON g__g_vcfl_g_W_hf_max         =   1.3930180623195E-04
(PID.TID 0000.0001) // =======================================================
(PID.TID 0000.0001) // End MONITOR dynamic field statistics
(PID.TID 0000.0001) // =======================================================
 cg2d: Sum(rhs),rhsMax =   8.24249163998533E-12  1.36075056681605E-02
 cg2d: Sum(rhs),rhsMax =   3.03563424397524E-12  1.02123013095249E+01
(PID.TID 0000.0001) // =======================================================
(PID.TID 0000.0001) // Begin MONITOR dynamic field statistics
(PID.TID 0000.0001) // =======================================================
(PID.TID 0000.0001) %MON g__time_tsnumber             =                    99
(PID.TID 0000.0001) %MON g__time_secondsf             =   4.2768000000000E+06
(PID.TID 0000.0001) %MON g__dynstat_g_eta_max         =   3.3358997980881E-03
(PID.TID 0000.0001) %MON g__dynstat_g_eta_min         =  -2.6744103921926E-05
(PID.TID 0000.0001) %MON g__dynstat_g_eta_mean        =  -7.2486728068682E-18
(PID.TID 0000.0001) %MON g__dynstat_g_eta_sd          =   4.3484215773660E-05
(PID.TID 0000.0001) %MON g__dynstat_g_eta_del2        =   2.1095435188789E-06
(PID.TID 0000.0001) %MON g__dynstat_g_uvel_max        =   3.2094100305481E-05
(PID.TID 0000.0001) %MON g__dynstat_g_uvel_min        =  -1.5683609446830E-04
(PID.TID 0000.0001) %MON g__dynstat_g_uvel_mean       =   1.5845717004320E-08
(PID.TID 0000.0001) %MON g__dynstat_g_uvel_sd         =   4.8366294011800E-07
(PID.TID 0000.0001) %MON g__dynstat_g_uvel_del2       =   4.6734957968776E-08
(PID.TID 0000.0001) %MON g__dynstat_g_vvel_max        =   3.1715695222553E-04
(PID.TID 0000.0001) %MON g__dynstat_g_vvel_min        =  -1.7657663623171E-04
(PID.TID 0000.0001) %MON g__dynstat_g_vvel_mean       =  -1.5904192049321E-08
(PID.TID 0000.0001) %MON g__dynstat_g_vvel_sd         =   7.0318709726187E-07
(PID.TID 0000.0001) %MON g__dynstat_g_vvel_del2       =   5.7652642208758E-08
(PID.TID 0000.0001) %MON g__dynstat_g_wvel_max        =   6.7336584793361E-08
(PID.TID 0000.0001) %MON g__dynstat_g_wvel_min        =  -9.1541228969133E-08
(PID.TID 0000.0001) %MON g__dynstat_g_wvel_mean       =  -1.9235432154308E-27
(PID.TID 0000.0001) %MON g__dynstat_g_wvel_sd         =   5.1542329141753E-10
(PID.TID 0000.0001) %MON g__dynstat_g_wvel_del2       =   8.5751960142924E-11
(PID.TID 0000.0001) %MON g__dynstat_g_theta_max       =   4.5138417274063E-01
(PID.TID 0000.0001) %MON g__dynstat_g_theta_min       =  -4.9881017320366E-04
(PID.TID 0000.0001) %MON g__dynstat_g_theta_mean      =   2.8041475310414E-06
(PID.TID 0000.0001) %MON g__dynstat_g_theta_sd        =   7.7450011841525E-04
(PID.TID 0000.0001) %MON g__dynstat_g_theta_del2      =   2.9353121378103E-05
(PID.TID 0000.0001) %MON g__dynstat_g_salt_max        =   8.5150560891679E-03
(PID.TID 0000.0001) %MON g__dynstat_g_salt_min        =  -1.4837468639119E-02
(PID.TID 0000.0001) %MON g__dynstat_g_salt_mean       =   4.8019575291513E-09
(PID.TID 0000.0001) %MON g__dynstat_g_salt_sd         =   2.6021417360781E-05
(PID.TID 0000.0001) %MON g__dynstat_g_salt_del2       =   1.6113368326440E-06
(PID.TID 0000.0001) %MON g__dynstat_g_sst_max         =   4.5138417274063E-01
(PID.TID 0000.0001) %MON g__dynstat_g_sst_min         =  -9.1408964351819E-05
(PID.TID 0000.0001) %MON g__dynstat_g_sst_mean        =   1.0761126384825E-04
(PID.TID 0000.0001) %MON g__dynstat_g_sst_sd          =   5.9217737992963E-03
(PID.TID 0000.0001) %MON g__dynstat_g_sst_del2        =   2.4989073420132E-04
(PID.TID 0000.0001) %MON g__dynstat_g_sss_max         =   8.5150560891679E-03
(PID.TID 0000.0001) %MON g__dynstat_g_sss_min         =  -1.4837468639119E-02
(PID.TID 0000.0001) %MON g__dynstat_g_sss_mean        =   1.7525958970507E-07
(PID.TID 0000.0001) %MON g__dynstat_g_sss_sd          =   2.2502109230895E-04
(PID.TID 0000.0001) %MON g__dynstat_g_sss_del2        =   1.7492170285025E-05
(PID.TID 0000.0001) %MON g__extforcing_g_qnet_max     =   0.0000000000000E+00
(PID.TID 0000.0001) %MON g__extforcing_g_qnet_min     =   0.0000000000000E+00
(PID.TID 0000.0001) %MON g__extforcing_g_qnet_mean    =   0.0000000000000E+00
(PID.TID 0000.0001) %MON g__extforcing_g_qnet_sd      =   0.0000000000000E+00
(PID.TID 0000.0001) %MON g__extforcing_g_qnet_del2    =   0.0000000000000E+00
(PID.TID 0000.0001) %MON g__extforcing_g_empmr_max    =   0.0000000000000E+00
(PID.TID 0000.0001) %MON g__extforcing_g_empmr_min    =   0.0000000000000E+00
(PID.TID 0000.0001) %MON g__extforcing_g_empmr_mean   =   0.0000000000000E+00
(PID.TID 0000.0001) %MON g__extforcing_g_empmr_sd     =   0.0000000000000E+00
(PID.TID 0000.0001) %MON g__extforcing_g_empmr_del2   =   0.0000000000000E+00
(PID.TID 0000.0001) %MON g__extforcing_g_fu_max       =   0.0000000000000E+00
(PID.TID 0000.0001) %MON g__extforcing_g_fu_min       =   0.0000000000000E+00
(PID.TID 0000.0001) %MON g__extforcing_g_fu_mean      =   0.0000000000000E+00
(PID.TID 0000.0001) %MON g__extforcing_g_fu_sd        =   0.0000000000000E+00
(PID.TID 0000.0001) %MON g__extforcing_g_fu_del2      =   0.0000000000000E+00
(PID.TID 0000.0001) %MON g__extforcing_g_fv_max       =   0.0000000000000E+00
(PID.TID 0000.0001) %MON g__extforcing_g_fv_min       =   0.0000000000000E+00
(PID.TID 0000.0001) %MON g__extforcing_g_fv_mean      =   0.0000000000000E+00
(PID.TID 0000.0001) %MON g__extforcing_g_fv_sd        =   0.0000000000000E+00
(PID.TID 0000.0001) %MON g__extforcing_g_fv_del2      =   0.0000000000000E+00
(PID.TID 0000.0001) %MON g__g_vcfl_g_uvel_max         =   5.0707732302842E-05
(PID.TID 0000.0001) %MON g__g_vcfl_g_vvel_max         =   3.0809254615723E-05
(PID.TID 0000.0001) %MON g__g_vcfl_g_wvel_max         =   5.8245684067811E-05
(PID.TID 0000.0001) %MON g__g_vcfl_g_W_hf_max         =   1.3978964176275E-04
(PID.TID 0000.0001) // =======================================================
(PID.TID 0000.0001) // End MONITOR dynamic field statistics
(PID.TID 0000.0001) // =======================================================
 cg2d: Sum(rhs),rhsMax =   8.47763354522036E-12  1.34574808626552E-02
 cg2d: Sum(rhs),rhsMax =   2.62610072576663E-12  1.02275375580449E+01
(PID.TID 0000.0001) // =======================================================
(PID.TID 0000.0001) // Begin MONITOR dynamic field statistics
(PID.TID 0000.0001) // =======================================================
(PID.TID 0000.0001) %MON g__time_tsnumber             =                   100
(PID.TID 0000.0001) %MON g__time_secondsf             =   4.3200000000000E+06
(PID.TID 0000.0001) %MON g__dynstat_g_eta_max         =   3.3000439829382E-03
(PID.TID 0000.0001) %MON g__dynstat_g_eta_min         =  -2.7096984318648E-05
(PID.TID 0000.0001) %MON g__dynstat_g_eta_mean        =  -7.3722119398127E-18
(PID.TID 0000.0001) %MON g__dynstat_g_eta_sd          =   4.3040160246030E-05
(PID.TID 0000.0001) %MON g__dynstat_g_eta_del2        =   2.0921666094863E-06
(PID.TID 0000.0001) %MON g__dynstat_g_uvel_max        =   3.1260243407711E-05
(PID.TID 0000.0001) %MON g__dynstat_g_uvel_min        =  -1.5627608057927E-04
(PID.TID 0000.0001) %MON g__dynstat_g_uvel_mean       =   1.7434186819426E-08
(PID.TID 0000.0001) %MON g__dynstat_g_uvel_sd         =   4.9048696772152E-07
(PID.TID 0000.0001) %MON g__dynstat_g_uvel_del2       =   4.5838085419521E-08
(PID.TID 0000.0001) %MON g__dynstat_g_vvel_max        =   3.0949241900802E-04
(PID.TID 0000.0001) %MON g__dynstat_g_vvel_min        =  -1.7937570040670E-04
(PID.TID 0000.0001) %MON g__dynstat_g_vvel_mean       =  -1.6943812307969E-08
(PID.TID 0000.0001) %MON g__dynstat_g_vvel_sd         =   6.9287041525743E-07
(PID.TID 0000.0001) %MON g__dynstat_g_vvel_del2       =   5.7169720515598E-08
(PID.TID 0000.0001) %MON g__dynstat_g_wvel_max        =   6.6267347167747E-08
(PID.TID 0000.0001) %MON g__dynstat_g_wvel_min        =  -9.0917541741717E-08
(PID.TID 0000.0001) %MON g__dynstat_g_wvel_mean       =  -1.8423456124505E-27
(PID.TID 0000.0001) %MON g__dynstat_g_wvel_sd         =   5.0373785643901E-10
(PID.TID 0000.0001) %MON g__dynstat_g_wvel_del2       =   8.3445806683515E-11
(PID.TID 0000.0001) %MON g__dynstat_g_theta_max       =   4.4618951256633E-01
(PID.TID 0000.0001) %MON g__dynstat_g_theta_min       =  -5.0502507896933E-04
(PID.TID 0000.0001) %MON g__dynstat_g_theta_mean      =   2.7946981999862E-06
(PID.TID 0000.0001) %MON g__dynstat_g_theta_sd        =   7.6758222365697E-04
(PID.TID 0000.0001) %MON g__dynstat_g_theta_del2      =   2.9036532282130E-05
(PID.TID 0000.0001) %MON g__dynstat_g_salt_max        =   8.5086015281086E-03
(PID.TID 0000.0001) %MON g__dynstat_g_salt_min        =  -1.4804469780734E-02
(PID.TID 0000.0001) %MON g__dynstat_g_salt_mean       =   4.9901276648945E-09
(PID.TID 0000.0001) %MON g__dynstat_g_salt_sd         =   2.5969023285975E-05
(PID.TID 0000.0001) %MON g__dynstat_g_salt_del2       =   1.6098849065569E-06
(PID.TID 0000.0001) %MON g__dynstat_g_sst_max         =   4.4618951256633E-01
(PID.TID 0000.0001) %MON g__dynstat_g_sst_min         =  -9.0917558724339E-05
(PID.TID 0000.0001) %MON g__dynstat_g_sst_mean        =   1.0667128118380E-04
(PID.TID 0000.0001) %MON g__dynstat_g_sst_sd          =   5.8581188387985E-03
(PID.TID 0000.0001) %MON g__dynstat_g_sst_del2        =   2.4668962526446E-04
(PID.TID 0000.0001) %MON g__dynstat_g_sss_max         =   8.5086015281086E-03
(PID.TID 0000.0001) %MON g__dynstat_g_sss_min         =  -1.4804469780734E-02
(PID.TID 0000.0001) %MON g__dynstat_g_sss_mean        =   1.7768743649581E-07
(PID.TID 0000.0001) %MON g__dynstat_g_sss_sd          =   2.2452928077505E-04
(PID.TID 0000.0001) %MON g__dynstat_g_sss_del2        =   1.7452158528991E-05
(PID.TID 0000.0001) %MON g__extforcing_g_qnet_max     =   0.0000000000000E+00
(PID.TID 0000.0001) %MON g__extforcing_g_qnet_min     =   0.0000000000000E+00
(PID.TID 0000.0001) %MON g__extforcing_g_qnet_mean    =   0.0000000000000E+00
(PID.TID 0000.0001) %MON g__extforcing_g_qnet_sd      =   0.0000000000000E+00
(PID.TID 0000.0001) %MON g__extforcing_g_qnet_del2    =   0.0000000000000E+00
(PID.TID 0000.0001) %MON g__extforcing_g_empmr_max    =   0.0000000000000E+00
(PID.TID 0000.0001) %MON g__extforcing_g_empmr_min    =   0.0000000000000E+00
(PID.TID 0000.0001) %MON g__extforcing_g_empmr_mean   =   0.0000000000000E+00
(PID.TID 0000.0001) %MON g__extforcing_g_empmr_sd     =   0.0000000000000E+00
(PID.TID 0000.0001) %MON g__extforcing_g_empmr_del2   =   0.0000000000000E+00
(PID.TID 0000.0001) %MON g__extforcing_g_fu_max       =   0.0000000000000E+00
(PID.TID 0000.0001) %MON g__extforcing_g_fu_min       =   0.0000000000000E+00
(PID.TID 0000.0001) %MON g__extforcing_g_fu_mean      =   0.0000000000000E+00
(PID.TID 0000.0001) %MON g__extforcing_g_fu_sd        =   0.0000000000000E+00
(PID.TID 0000.0001) %MON g__extforcing_g_fu_del2      =   0.0000000000000E+00
(PID.TID 0000.0001) %MON g__extforcing_g_fv_max       =   0.0000000000000E+00
(PID.TID 0000.0001) %MON g__extforcing_g_fv_min       =   0.0000000000000E+00
(PID.TID 0000.0001) %MON g__extforcing_g_fv_mean      =   0.0000000000000E+00
(PID.TID 0000.0001) %MON g__extforcing_g_fv_sd        =   0.0000000000000E+00
(PID.TID 0000.0001) %MON g__extforcing_g_fv_del2      =   0.0000000000000E+00
(PID.TID 0000.0001) %MON g__g_vcfl_g_uvel_max         =   4.9855854378943E-05
(PID.TID 0000.0001) %MON g__g_vcfl_g_vvel_max         =   3.0064706675809E-05
(PID.TID 0000.0001) %MON g__g_vcfl_g_wvel_max         =   5.7964502178727E-05
(PID.TID 0000.0001) %MON g__g_vcfl_g_W_hf_max         =   1.3911480522894E-04
(PID.TID 0000.0001) // =======================================================
(PID.TID 0000.0001) // End MONITOR dynamic field statistics
(PID.TID 0000.0001) // =======================================================
 myIter=  100
(PID.TID 0000.0001) // Model state written, timestep       100
(PID.TID 0000.0001) 
 cg2d: Sum(rhs),rhsMax =   8.72254419927388E-12  1.33031321572835E-02
 cg2d: Sum(rhs),rhsMax =   2.56973609058520E-12  1.01758680259234E+01
(PID.TID 0000.0001) // =======================================================
(PID.TID 0000.0001) // Begin MONITOR dynamic field statistics
(PID.TID 0000.0001) // =======================================================
(PID.TID 0000.0001) %MON g__time_tsnumber             =                   101
(PID.TID 0000.0001) %MON g__time_secondsf             =   4.3632000000000E+06
(PID.TID 0000.0001) %MON g__dynstat_g_eta_max         =   3.2631081245048E-03
(PID.TID 0000.0001) %MON g__dynstat_g_eta_min         =  -2.7336852600259E-05
(PID.TID 0000.0001) %MON g__dynstat_g_eta_mean        =  -7.4803104845174E-18
(PID.TID 0000.0001) %MON g__dynstat_g_eta_sd          =   4.2582559775083E-05
(PID.TID 0000.0001) %MON g__dynstat_g_eta_del2        =   2.0726676877584E-06
(PID.TID 0000.0001) %MON g__dynstat_g_uvel_max        =   3.0047875871569E-05
(PID.TID 0000.0001) %MON g__dynstat_g_uvel_min        =  -1.5536420206551E-04
(PID.TID 0000.0001) %MON g__dynstat_g_uvel_mean       =   1.8763642030543E-08
(PID.TID 0000.0001) %MON g__dynstat_g_uvel_sd         =   4.9595904308182E-07
(PID.TID 0000.0001) %MON g__dynstat_g_uvel_del2       =   4.5014993675950E-08
(PID.TID 0000.0001) %MON g__dynstat_g_vvel_max        =   3.0177570174872E-04
(PID.TID 0000.0001) %MON g__dynstat_g_vvel_min        =  -1.8230337495983E-04
(PID.TID 0000.0001) %MON g__dynstat_g_vvel_mean       =  -1.7907617326913E-08
(PID.TID 0000.0001) %MON g__dynstat_g_vvel_sd         =   6.8296453589280E-07
(PID.TID 0000.0001) %MON g__dynstat_g_vvel_del2       =   5.6719344115584E-08
(PID.TID 0000.0001) %MON g__dynstat_g_wvel_max        =   6.5758428509614E-08
(PID.TID 0000.0001) %MON g__dynstat_g_wvel_min        =  -8.9577009372325E-08
(PID.TID 0000.0001) %MON g__dynstat_g_wvel_mean       =  -3.1488570431643E-27
(PID.TID 0000.0001) %MON g__dynstat_g_wvel_sd         =   4.9318888612068E-10
(PID.TID 0000.0001) %MON g__dynstat_g_wvel_del2       =   8.1832490309572E-11
(PID.TID 0000.0001) %MON g__dynstat_g_theta_max       =   4.4098439956488E-01
(PID.TID 0000.0001) %MON g__dynstat_g_theta_min       =  -5.1140912199224E-04
(PID.TID 0000.0001) %MON g__dynstat_g_theta_mean      =   2.7840067617341E-06
(PID.TID 0000.0001) %MON g__dynstat_g_theta_sd        =   7.6058753987350E-04
(PID.TID 0000.0001) %MON g__dynstat_g_theta_del2      =   2.8714824598569E-05
(PID.TID 0000.0001) %MON g__dynstat_g_salt_max        =   8.5016069954585E-03
(PID.TID 0000.0001) %MON g__dynstat_g_salt_min        =  -1.4766655759891E-02
(PID.TID 0000.0001) %MON g__dynstat_g_salt_mean       =   5.1745851544056E-09
(PID.TID 0000.0001) %MON g__dynstat_g_salt_sd         =   2.5909060301701E-05
(PID.TID 0000.0001) %MON g__dynstat_g_salt_del2       =   1.6080041223753E-06
(PID.TID 0000.0001) %MON g__dynstat_g_sst_max         =   4.4098439956488E-01
(PID.TID 0000.0001) %MON g__dynstat_g_sst_min         =  -9.0411970099724E-05
(PID.TID 0000.0001) %MON g__dynstat_g_sst_mean        =   1.0572202375739E-04
(PID.TID 0000.0001) %MON g__dynstat_g_sst_sd          =   5.7943330845716E-03
(PID.TID 0000.0001) %MON g__dynstat_g_sst_del2        =   2.4348480609138E-04
(PID.TID 0000.0001) %MON g__dynstat_g_sss_max         =   8.5016069954585E-03
(PID.TID 0000.0001) %MON g__dynstat_g_sss_min         =  -1.4766655759891E-02
(PID.TID 0000.0001) %MON g__dynstat_g_sss_mean        =   1.7992329705788E-07
(PID.TID 0000.0001) %MON g__dynstat_g_sss_sd          =   2.2397014336450E-04
(PID.TID 0000.0001) %MON g__dynstat_g_sss_del2        =   1.7406114879395E-05
(PID.TID 0000.0001) %MON g__extforcing_g_qnet_max     =   0.0000000000000E+00
(PID.TID 0000.0001) %MON g__extforcing_g_qnet_min     =   0.0000000000000E+00
(PID.TID 0000.0001) %MON g__extforcing_g_qnet_mean    =   0.0000000000000E+00
(PID.TID 0000.0001) %MON g__extforcing_g_qnet_sd      =   0.0000000000000E+00
(PID.TID 0000.0001) %MON g__extforcing_g_qnet_del2    =   0.0000000000000E+00
(PID.TID 0000.0001) %MON g__extforcing_g_empmr_max    =   0.0000000000000E+00
(PID.TID 0000.0001) %MON g__extforcing_g_empmr_min    =   0.0000000000000E+00
(PID.TID 0000.0001) %MON g__extforcing_g_empmr_mean   =   0.0000000000000E+00
(PID.TID 0000.0001) %MON g__extforcing_g_empmr_sd     =   0.0000000000000E+00
(PID.TID 0000.0001) %MON g__extforcing_g_empmr_del2   =   0.0000000000000E+00
(PID.TID 0000.0001) %MON g__extforcing_g_fu_max       =   0.0000000000000E+00
(PID.TID 0000.0001) %MON g__extforcing_g_fu_min       =   0.0000000000000E+00
(PID.TID 0000.0001) %MON g__extforcing_g_fu_mean      =   0.0000000000000E+00
(PID.TID 0000.0001) %MON g__extforcing_g_fu_sd        =   0.0000000000000E+00
(PID.TID 0000.0001) %MON g__extforcing_g_fu_del2      =   0.0000000000000E+00
(PID.TID 0000.0001) %MON g__extforcing_g_fv_max       =   0.0000000000000E+00
(PID.TID 0000.0001) %MON g__extforcing_g_fv_min       =   0.0000000000000E+00
(PID.TID 0000.0001) %MON g__extforcing_g_fv_mean      =   0.0000000000000E+00
(PID.TID 0000.0001) %MON g__extforcing_g_fv_sd        =   0.0000000000000E+00
(PID.TID 0000.0001) %MON g__extforcing_g_fv_del2      =   0.0000000000000E+00
(PID.TID 0000.0001) %MON g__g_vcfl_g_uvel_max         =   4.8580241166305E-05
(PID.TID 0000.0001) %MON g__g_vcfl_g_vvel_max         =   2.9315089474701E-05
(PID.TID 0000.0001) %MON g__g_vcfl_g_wvel_max         =   5.7226471050649E-05
(PID.TID 0000.0001) %MON g__g_vcfl_g_W_hf_max         =   1.3734353052156E-04
(PID.TID 0000.0001) // =======================================================
(PID.TID 0000.0001) // End MONITOR dynamic field statistics
(PID.TID 0000.0001) // =======================================================
 cg2d: Sum(rhs),rhsMax =   8.95552154399945E-12  1.31466555827238E-02
 cg2d: Sum(rhs),rhsMax =   2.72855349425782E-12  1.00619947917649E+01
(PID.TID 0000.0001) // =======================================================
(PID.TID 0000.0001) // Begin MONITOR dynamic field statistics
(PID.TID 0000.0001) // =======================================================
(PID.TID 0000.0001) %MON g__time_tsnumber             =                   102
(PID.TID 0000.0001) %MON g__time_secondsf             =   4.4064000000000E+06
(PID.TID 0000.0001) %MON g__dynstat_g_eta_max         =   3.2256572797223E-03
(PID.TID 0000.0001) %MON g__dynstat_g_eta_min         =  -2.7520408551952E-05
(PID.TID 0000.0001) %MON g__dynstat_g_eta_mean        =  -7.5597137391512E-18
(PID.TID 0000.0001) %MON g__dynstat_g_eta_sd          =   4.2118888151407E-05
(PID.TID 0000.0001) %MON g__dynstat_g_eta_del2        =   2.0514080336398E-06
(PID.TID 0000.0001) %MON g__dynstat_g_uvel_max        =   2.8508118870110E-05
(PID.TID 0000.0001) %MON g__dynstat_g_uvel_min        =  -1.5410887234952E-04
(PID.TID 0000.0001) %MON g__dynstat_g_uvel_mean       =   1.9791833268289E-08
(PID.TID 0000.0001) %MON g__dynstat_g_uvel_sd         =   4.9967285738497E-07
(PID.TID 0000.0001) %MON g__dynstat_g_uvel_del2       =   4.4748874073426E-08
(PID.TID 0000.0001) %MON g__dynstat_g_vvel_max        =   2.9414726291017E-04
(PID.TID 0000.0001) %MON g__dynstat_g_vvel_min        =  -1.8520923246623E-04
(PID.TID 0000.0001) %MON g__dynstat_g_vvel_mean       =  -1.8818480055967E-08
(PID.TID 0000.0001) %MON g__dynstat_g_vvel_sd         =   6.7369894391160E-07
(PID.TID 0000.0001) %MON g__dynstat_g_vvel_del2       =   5.6378812730224E-08
(PID.TID 0000.0001) %MON g__dynstat_g_wvel_max        =   6.5741785869528E-08
(PID.TID 0000.0001) %MON g__dynstat_g_wvel_min        =  -8.7595580447071E-08
(PID.TID 0000.0001) %MON g__dynstat_g_wvel_mean       =  -1.0770932033276E-27
(PID.TID 0000.0001) %MON g__dynstat_g_wvel_sd         =   4.8405960127286E-10
(PID.TID 0000.0001) %MON g__dynstat_g_wvel_del2       =   8.1236891306951E-11
(PID.TID 0000.0001) %MON g__dynstat_g_theta_max       =   4.3579459428018E-01
(PID.TID 0000.0001) %MON g__dynstat_g_theta_min       =  -5.1795725350508E-04
(PID.TID 0000.0001) %MON g__dynstat_g_theta_mean      =   2.7722843590501E-06
(PID.TID 0000.0001) %MON g__dynstat_g_theta_sd        =   7.5357328324629E-04
(PID.TID 0000.0001) %MON g__dynstat_g_theta_del2      =   2.8390464906455E-05
(PID.TID 0000.0001) %MON g__dynstat_g_salt_max        =   8.4947174125083E-03
(PID.TID 0000.0001) %MON g__dynstat_g_salt_min        =  -1.4725587701696E-02
(PID.TID 0000.0001) %MON g__dynstat_g_salt_mean       =   5.3461286547804E-09
(PID.TID 0000.0001) %MON g__dynstat_g_salt_sd         =   2.5844103569395E-05
(PID.TID 0000.0001) %MON g__dynstat_g_salt_del2       =   1.6057770177910E-06
(PID.TID 0000.0001) %MON g__dynstat_g_sst_max         =   4.3579459428018E-01
(PID.TID 0000.0001) %MON g__dynstat_g_sst_min         =  -8.9913801305494E-05
(PID.TID 0000.0001) %MON g__dynstat_g_sst_mean        =   1.0477037454340E-04
(PID.TID 0000.0001) %MON g__dynstat_g_sst_sd          =   5.7307462769776E-03
(PID.TID 0000.0001) %MON g__dynstat_g_sst_del2        =   2.4028952079476E-04
(PID.TID 0000.0001) %MON g__dynstat_g_sss_max         =   8.4947174125083E-03
(PID.TID 0000.0001) %MON g__dynstat_g_sss_min         =  -1.4725587701696E-02
(PID.TID 0000.0001) %MON g__dynstat_g_sss_mean        =   1.8205159030786E-07
(PID.TID 0000.0001) %MON g__dynstat_g_sss_sd          =   2.2336708090485E-04
(PID.TID 0000.0001) %MON g__dynstat_g_sss_del2        =   1.7355602431635E-05
(PID.TID 0000.0001) %MON g__extforcing_g_qnet_max     =   0.0000000000000E+00
(PID.TID 0000.0001) %MON g__extforcing_g_qnet_min     =   0.0000000000000E+00
(PID.TID 0000.0001) %MON g__extforcing_g_qnet_mean    =   0.0000000000000E+00
(PID.TID 0000.0001) %MON g__extforcing_g_qnet_sd      =   0.0000000000000E+00
(PID.TID 0000.0001) %MON g__extforcing_g_qnet_del2    =   0.0000000000000E+00
(PID.TID 0000.0001) %MON g__extforcing_g_empmr_max    =   0.0000000000000E+00
(PID.TID 0000.0001) %MON g__extforcing_g_empmr_min    =   0.0000000000000E+00
(PID.TID 0000.0001) %MON g__extforcing_g_empmr_mean   =   0.0000000000000E+00
(PID.TID 0000.0001) %MON g__extforcing_g_empmr_sd     =   0.0000000000000E+00
(PID.TID 0000.0001) %MON g__extforcing_g_empmr_del2   =   0.0000000000000E+00
(PID.TID 0000.0001) %MON g__extforcing_g_fu_max       =   0.0000000000000E+00
(PID.TID 0000.0001) %MON g__extforcing_g_fu_min       =   0.0000000000000E+00
(PID.TID 0000.0001) %MON g__extforcing_g_fu_mean      =   0.0000000000000E+00
(PID.TID 0000.0001) %MON g__extforcing_g_fu_sd        =   0.0000000000000E+00
(PID.TID 0000.0001) %MON g__extforcing_g_fu_del2      =   0.0000000000000E+00
(PID.TID 0000.0001) %MON g__extforcing_g_fv_max       =   0.0000000000000E+00
(PID.TID 0000.0001) %MON g__extforcing_g_fv_min       =   0.0000000000000E+00
(PID.TID 0000.0001) %MON g__extforcing_g_fv_mean      =   0.0000000000000E+00
(PID.TID 0000.0001) %MON g__extforcing_g_fv_sd        =   0.0000000000000E+00
(PID.TID 0000.0001) %MON g__extforcing_g_fv_del2      =   0.0000000000000E+00
(PID.TID 0000.0001) %MON g__g_vcfl_g_uvel_max         =   4.6927856553471E-05
(PID.TID 0000.0001) %MON g__g_vcfl_g_vvel_max         =   2.8574047814260E-05
(PID.TID 0000.0001) %MON g__g_vcfl_g_wvel_max         =   5.6076278046140E-05
(PID.TID 0000.0001) %MON g__g_vcfl_g_W_hf_max         =   1.3458306731074E-04
(PID.TID 0000.0001) // =======================================================
(PID.TID 0000.0001) // End MONITOR dynamic field statistics
(PID.TID 0000.0001) // =======================================================
 cg2d: Sum(rhs),rhsMax =   9.16238728124023E-12  1.29900515501115E-02
 cg2d: Sum(rhs),rhsMax =   2.42582343101816E-12  9.89195713846400E+00
(PID.TID 0000.0001) // =======================================================
(PID.TID 0000.0001) // Begin MONITOR dynamic field statistics
(PID.TID 0000.0001) // =======================================================
(PID.TID 0000.0001) %MON g__time_tsnumber             =                   103
(PID.TID 0000.0001) %MON g__time_secondsf             =   4.4496000000000E+06
(PID.TID 0000.0001) %MON g__dynstat_g_eta_max         =   3.1882017960433E-03
(PID.TID 0000.0001) %MON g__dynstat_g_eta_min         =  -2.8085741814164E-05
(PID.TID 0000.0001) %MON g__dynstat_g_eta_mean        =  -7.6068944420532E-18
(PID.TID 0000.0001) %MON g__dynstat_g_eta_sd          =   4.1655876407406E-05
(PID.TID 0000.0001) %MON g__dynstat_g_eta_del2        =   2.0289786965672E-06
(PID.TID 0000.0001) %MON g__dynstat_g_uvel_max        =   2.6701449621126E-05
(PID.TID 0000.0001) %MON g__dynstat_g_uvel_min        =  -1.5252775772822E-04
(PID.TID 0000.0001) %MON g__dynstat_g_uvel_mean       =   2.0490611445592E-08
(PID.TID 0000.0001) %MON g__dynstat_g_uvel_sd         =   5.0127100211906E-07
(PID.TID 0000.0001) %MON g__dynstat_g_uvel_del2       =   4.4884536977562E-08
(PID.TID 0000.0001) %MON g__dynstat_g_vvel_max        =   2.8674958159774E-04
(PID.TID 0000.0001) %MON g__dynstat_g_vvel_min        =  -1.8794979221665E-04
(PID.TID 0000.0001) %MON g__dynstat_g_vvel_mean       =  -1.9697379898209E-08
(PID.TID 0000.0001) %MON g__dynstat_g_vvel_sd         =   6.6523385515377E-07
(PID.TID 0000.0001) %MON g__dynstat_g_vvel_del2       =   5.6123384811862E-08
(PID.TID 0000.0001) %MON g__dynstat_g_wvel_max        =   6.6141860726793E-08
(PID.TID 0000.0001) %MON g__dynstat_g_wvel_min        =  -8.5068433596554E-08
(PID.TID 0000.0001) %MON g__dynstat_g_wvel_mean       =   4.6373631012479E-29
(PID.TID 0000.0001) %MON g__dynstat_g_wvel_sd         =   4.7647376516189E-10
(PID.TID 0000.0001) %MON g__dynstat_g_wvel_del2       =   8.1729894150350E-11
(PID.TID 0000.0001) %MON g__dynstat_g_theta_max       =   4.3064303897043E-01
(PID.TID 0000.0001) %MON g__dynstat_g_theta_min       =  -5.2465670890594E-04
(PID.TID 0000.0001) %MON g__dynstat_g_theta_mean      =   2.7597529182962E-06
(PID.TID 0000.0001) %MON g__dynstat_g_theta_sd        =   7.4659182662599E-04
(PID.TID 0000.0001) %MON g__dynstat_g_theta_del2      =   2.8066164816500E-05
(PID.TID 0000.0001) %MON g__dynstat_g_salt_max        =   8.4884908118905E-03
(PID.TID 0000.0001) %MON g__dynstat_g_salt_min        =  -1.4682727046641E-02
(PID.TID 0000.0001) %MON g__dynstat_g_salt_mean       =   5.4962316472419E-09
(PID.TID 0000.0001) %MON g__dynstat_g_salt_sd         =   2.5776547074290E-05
(PID.TID 0000.0001) %MON g__dynstat_g_salt_del2       =   1.6033233643994E-06
(PID.TID 0000.0001) %MON g__dynstat_g_sst_max         =   4.3064303897043E-01
(PID.TID 0000.0001) %MON g__dynstat_g_sst_min         =  -8.9443406926870E-05
(PID.TID 0000.0001) %MON g__dynstat_g_sst_mean        =   1.0382112572378E-04
(PID.TID 0000.0001) %MON g__dynstat_g_sst_sd          =   5.6676517604771E-03
(PID.TID 0000.0001) %MON g__dynstat_g_sst_del2        =   2.3711877642240E-04
(PID.TID 0000.0001) %MON g__dynstat_g_sss_max         =   8.4884908118905E-03
(PID.TID 0000.0001) %MON g__dynstat_g_sss_min         =  -1.4682727046641E-02
(PID.TID 0000.0001) %MON g__dynstat_g_sss_mean        =   1.8388827026502E-07
(PID.TID 0000.0001) %MON g__dynstat_g_sss_sd          =   2.2274188917460E-04
(PID.TID 0000.0001) %MON g__dynstat_g_sss_del2        =   1.7302772945809E-05
(PID.TID 0000.0001) %MON g__extforcing_g_qnet_max     =   0.0000000000000E+00
(PID.TID 0000.0001) %MON g__extforcing_g_qnet_min     =   0.0000000000000E+00
(PID.TID 0000.0001) %MON g__extforcing_g_qnet_mean    =   0.0000000000000E+00
(PID.TID 0000.0001) %MON g__extforcing_g_qnet_sd      =   0.0000000000000E+00
(PID.TID 0000.0001) %MON g__extforcing_g_qnet_del2    =   0.0000000000000E+00
(PID.TID 0000.0001) %MON g__extforcing_g_empmr_max    =   0.0000000000000E+00
(PID.TID 0000.0001) %MON g__extforcing_g_empmr_min    =   0.0000000000000E+00
(PID.TID 0000.0001) %MON g__extforcing_g_empmr_mean   =   0.0000000000000E+00
(PID.TID 0000.0001) %MON g__extforcing_g_empmr_sd     =   0.0000000000000E+00
(PID.TID 0000.0001) %MON g__extforcing_g_empmr_del2   =   0.0000000000000E+00
(PID.TID 0000.0001) %MON g__extforcing_g_fu_max       =   0.0000000000000E+00
(PID.TID 0000.0001) %MON g__extforcing_g_fu_min       =   0.0000000000000E+00
(PID.TID 0000.0001) %MON g__extforcing_g_fu_mean      =   0.0000000000000E+00
(PID.TID 0000.0001) %MON g__extforcing_g_fu_sd        =   0.0000000000000E+00
(PID.TID 0000.0001) %MON g__extforcing_g_fu_del2      =   0.0000000000000E+00
(PID.TID 0000.0001) %MON g__extforcing_g_fv_max       =   0.0000000000000E+00
(PID.TID 0000.0001) %MON g__extforcing_g_fv_min       =   0.0000000000000E+00
(PID.TID 0000.0001) %MON g__extforcing_g_fv_mean      =   0.0000000000000E+00
(PID.TID 0000.0001) %MON g__extforcing_g_fv_sd        =   0.0000000000000E+00
(PID.TID 0000.0001) %MON g__extforcing_g_fv_del2      =   0.0000000000000E+00
(PID.TID 0000.0001) %MON g__g_vcfl_g_uvel_max         =   4.4956028868382E-05
(PID.TID 0000.0001) %MON g__g_vcfl_g_vvel_max         =   2.7855422397030E-05
(PID.TID 0000.0001) %MON g__g_vcfl_g_wvel_max         =   5.4570963581880E-05
(PID.TID 0000.0001) %MON g__g_vcfl_g_W_hf_max         =   1.3097031259651E-04
(PID.TID 0000.0001) // =======================================================
(PID.TID 0000.0001) // End MONITOR dynamic field statistics
(PID.TID 0000.0001) // =======================================================
 cg2d: Sum(rhs),rhsMax =   9.32787101547280E-12  1.28350461838247E-02
 cg2d: Sum(rhs),rhsMax =   2.82780049376541E-12  9.67292361771449E+00
(PID.TID 0000.0001) // =======================================================
(PID.TID 0000.0001) // Begin MONITOR dynamic field statistics
(PID.TID 0000.0001) // =======================================================
(PID.TID 0000.0001) %MON g__time_tsnumber             =                   104
(PID.TID 0000.0001) %MON g__time_secondsf             =   4.4928000000000E+06
(PID.TID 0000.0001) %MON g__dynstat_g_eta_max         =   3.1511782738452E-03
(PID.TID 0000.0001) %MON g__dynstat_g_eta_min         =  -2.9872663512255E-05
(PID.TID 0000.0001) %MON g__dynstat_g_eta_mean        =  -7.6163938171218E-18
(PID.TID 0000.0001) %MON g__dynstat_g_eta_sd          =   4.1199271790844E-05
(PID.TID 0000.0001) %MON g__dynstat_g_eta_del2        =   2.0059619672501E-06
(PID.TID 0000.0001) %MON g__dynstat_g_uvel_max        =   2.4693954039591E-05
(PID.TID 0000.0001) %MON g__dynstat_g_uvel_min        =  -1.5064705709027E-04
(PID.TID 0000.0001) %MON g__dynstat_g_uvel_mean       =   2.0846271385192E-08
(PID.TID 0000.0001) %MON g__dynstat_g_uvel_sd         =   5.0046348523473E-07
(PID.TID 0000.0001) %MON g__dynstat_g_uvel_del2       =   4.5174431880360E-08
(PID.TID 0000.0001) %MON g__dynstat_g_vvel_max        =   2.7972280705423E-04
(PID.TID 0000.0001) %MON g__dynstat_g_vvel_min        =  -1.9039271390988E-04
(PID.TID 0000.0001) %MON g__dynstat_g_vvel_mean       =  -2.0561634233647E-08
(PID.TID 0000.0001) %MON g__dynstat_g_vvel_sd         =   6.5765227485942E-07
(PID.TID 0000.0001) %MON g__dynstat_g_vvel_del2       =   5.5946409228093E-08
(PID.TID 0000.0001) %MON g__dynstat_g_wvel_max        =   6.6879613554600E-08
(PID.TID 0000.0001) %MON g__dynstat_g_wvel_min        =  -8.2102850322517E-08
(PID.TID 0000.0001) %MON g__dynstat_g_wvel_mean       =  -1.0352694379993E-27
(PID.TID 0000.0001) %MON g__dynstat_g_wvel_sd         =   4.7034308944191E-10
(PID.TID 0000.0001) %MON g__dynstat_g_wvel_del2       =   8.2963740708536E-11
(PID.TID 0000.0001) %MON g__dynstat_g_theta_max       =   4.2554891682920E-01
(PID.TID 0000.0001) %MON g__dynstat_g_theta_min       =  -5.3148780474493E-04
(PID.TID 0000.0001) %MON g__dynstat_g_theta_mean      =   2.7466347223961E-06
(PID.TID 0000.0001) %MON g__dynstat_g_theta_sd        =   7.3968846175315E-04
(PID.TID 0000.0001) %MON g__dynstat_g_theta_del2      =   2.7744940933159E-05
(PID.TID 0000.0001) %MON g__dynstat_g_salt_max        =   8.4833829502415E-03
(PID.TID 0000.0001) %MON g__dynstat_g_salt_min        =  -1.4639368420019E-02
(PID.TID 0000.0001) %MON g__dynstat_g_salt_mean       =   5.6175446855640E-09
(PID.TID 0000.0001) %MON g__dynstat_g_salt_sd         =   2.5708501633877E-05
(PID.TID 0000.0001) %MON g__dynstat_g_salt_del2       =   1.6007760496849E-06
(PID.TID 0000.0001) %MON g__dynstat_g_sst_max         =   4.2554891682920E-01
(PID.TID 0000.0001) %MON g__dynstat_g_sst_min         =  -8.9021669666779E-05
(PID.TID 0000.0001) %MON g__dynstat_g_sst_mean        =   1.0288047012157E-04
(PID.TID 0000.0001) %MON g__dynstat_g_sst_sd          =   5.6052944345712E-03
(PID.TID 0000.0001) %MON g__dynstat_g_sst_del2        =   2.3398998083821E-04
(PID.TID 0000.0001) %MON g__dynstat_g_sss_max         =   8.4833829502415E-03
(PID.TID 0000.0001) %MON g__dynstat_g_sss_min         =  -1.4639368420019E-02
(PID.TID 0000.0001) %MON g__dynstat_g_sss_mean        =   1.8576964581950E-07
(PID.TID 0000.0001) %MON g__dynstat_g_sss_sd          =   2.2211381652901E-04
(PID.TID 0000.0001) %MON g__dynstat_g_sss_del2        =   1.7249889715170E-05
(PID.TID 0000.0001) %MON g__extforcing_g_qnet_max     =   0.0000000000000E+00
(PID.TID 0000.0001) %MON g__extforcing_g_qnet_min     =   0.0000000000000E+00
(PID.TID 0000.0001) %MON g__extforcing_g_qnet_mean    =   0.0000000000000E+00
(PID.TID 0000.0001) %MON g__extforcing_g_qnet_sd      =   0.0000000000000E+00
(PID.TID 0000.0001) %MON g__extforcing_g_qnet_del2    =   0.0000000000000E+00
(PID.TID 0000.0001) %MON g__extforcing_g_empmr_max    =   0.0000000000000E+00
(PID.TID 0000.0001) %MON g__extforcing_g_empmr_min    =   0.0000000000000E+00
(PID.TID 0000.0001) %MON g__extforcing_g_empmr_mean   =   0.0000000000000E+00
(PID.TID 0000.0001) %MON g__extforcing_g_empmr_sd     =   0.0000000000000E+00
(PID.TID 0000.0001) %MON g__extforcing_g_empmr_del2   =   0.0000000000000E+00
(PID.TID 0000.0001) %MON g__extforcing_g_fu_max       =   0.0000000000000E+00
(PID.TID 0000.0001) %MON g__extforcing_g_fu_min       =   0.0000000000000E+00
(PID.TID 0000.0001) %MON g__extforcing_g_fu_mean      =   0.0000000000000E+00
(PID.TID 0000.0001) %MON g__extforcing_g_fu_sd        =   0.0000000000000E+00
(PID.TID 0000.0001) %MON g__extforcing_g_fu_del2      =   0.0000000000000E+00
(PID.TID 0000.0001) %MON g__extforcing_g_fv_max       =   0.0000000000000E+00
(PID.TID 0000.0001) %MON g__extforcing_g_fv_min       =   0.0000000000000E+00
(PID.TID 0000.0001) %MON g__extforcing_g_fv_mean      =   0.0000000000000E+00
(PID.TID 0000.0001) %MON g__extforcing_g_fv_sd        =   0.0000000000000E+00
(PID.TID 0000.0001) %MON g__extforcing_g_fv_del2      =   0.0000000000000E+00
(PID.TID 0000.0001) %MON g__g_vcfl_g_uvel_max         =   4.3500225242838E-05
(PID.TID 0000.0001) %MON g__g_vcfl_g_vvel_max         =   2.7172827598085E-05
(PID.TID 0000.0001) %MON g__g_vcfl_g_wvel_max         =   5.3313871965303E-05
(PID.TID 0000.0001) %MON g__g_vcfl_g_W_hf_max         =   1.2666054179719E-04
(PID.TID 0000.0001) // =======================================================
(PID.TID 0000.0001) // End MONITOR dynamic field statistics
(PID.TID 0000.0001) // =======================================================
 cg2d: Sum(rhs),rhsMax =   9.45302491069545E-12  1.26830338644732E-02
 cg2d: Sum(rhs),rhsMax =   2.33942726302061E-12  9.41296214456248E+00
(PID.TID 0000.0001) // =======================================================
(PID.TID 0000.0001) // Begin MONITOR dynamic field statistics
(PID.TID 0000.0001) // =======================================================
(PID.TID 0000.0001) %MON g__time_tsnumber             =                   105
(PID.TID 0000.0001) %MON g__time_secondsf             =   4.5360000000000E+06
(PID.TID 0000.0001) %MON g__dynstat_g_eta_max         =   3.1149361721869E-03
(PID.TID 0000.0001) %MON g__dynstat_g_eta_min         =  -3.1971855070839E-05
(PID.TID 0000.0001) %MON g__dynstat_g_eta_mean        =  -7.5959132692357E-18
(PID.TID 0000.0001) %MON g__dynstat_g_eta_sd          =   4.0753661847894E-05
(PID.TID 0000.0001) %MON g__dynstat_g_eta_del2        =   1.9822372319193E-06
(PID.TID 0000.0001) %MON g__dynstat_g_uvel_max        =   2.4759540287442E-05
(PID.TID 0000.0001) %MON g__dynstat_g_uvel_min        =  -1.4850047731405E-04
(PID.TID 0000.0001) %MON g__dynstat_g_uvel_mean       =   2.0859720476156E-08
(PID.TID 0000.0001) %MON g__dynstat_g_uvel_sd         =   4.9704795163830E-07
(PID.TID 0000.0001) %MON g__dynstat_g_uvel_del2       =   4.5528200929526E-08
(PID.TID 0000.0001) %MON g__dynstat_g_vvel_max        =   2.7320023865027E-04
(PID.TID 0000.0001) %MON g__dynstat_g_vvel_min        =  -1.9242026993345E-04
(PID.TID 0000.0001) %MON g__dynstat_g_vvel_mean       =  -2.1422569403913E-08
(PID.TID 0000.0001) %MON g__dynstat_g_vvel_sd         =   6.5096057523064E-07
(PID.TID 0000.0001) %MON g__dynstat_g_vvel_del2       =   5.5871592042476E-08
(PID.TID 0000.0001) %MON g__dynstat_g_wvel_max        =   6.7876828987002E-08
(PID.TID 0000.0001) %MON g__dynstat_g_wvel_min        =  -7.8811621133470E-08
(PID.TID 0000.0001) %MON g__dynstat_g_wvel_mean       =  -2.2053723956029E-28
(PID.TID 0000.0001) %MON g__dynstat_g_wvel_sd         =   4.6543094651568E-10
(PID.TID 0000.0001) %MON g__dynstat_g_wvel_del2       =   8.4206174784441E-11
(PID.TID 0000.0001) %MON g__dynstat_g_theta_max       =   4.2052689873809E-01
(PID.TID 0000.0001) %MON g__dynstat_g_theta_min       =  -5.3842511949344E-04
(PID.TID 0000.0001) %MON g__dynstat_g_theta_mean      =   2.7331406420891E-06
(PID.TID 0000.0001) %MON g__dynstat_g_theta_sd        =   7.3289952215182E-04
(PID.TID 0000.0001) %MON g__dynstat_g_theta_del2      =   2.7443148862868E-05
(PID.TID 0000.0001) %MON g__dynstat_g_salt_max        =   8.4797250039929E-03
(PID.TID 0000.0001) %MON g__dynstat_g_salt_min        =  -1.4596580294121E-02
(PID.TID 0000.0001) %MON g__dynstat_g_salt_mean       =   5.7041505693522E-09
(PID.TID 0000.0001) %MON g__dynstat_g_salt_sd         =   2.5641694998354E-05
(PID.TID 0000.0001) %MON g__dynstat_g_salt_del2       =   1.5982031497505E-06
(PID.TID 0000.0001) %MON g__dynstat_g_sst_max         =   4.2052689873809E-01
(PID.TID 0000.0001) %MON g__dynstat_g_sst_min         =  -8.8664571078805E-05
(PID.TID 0000.0001) %MON g__dynstat_g_sst_mean        =   1.0195221827094E-04
(PID.TID 0000.0001) %MON g__dynstat_g_sst_sd          =   5.5438612331767E-03
(PID.TID 0000.0001) %MON g__dynstat_g_sst_del2        =   2.3090986993911E-04
(PID.TID 0000.0001) %MON g__dynstat_g_sss_max         =   8.4797250039929E-03
(PID.TID 0000.0001) %MON g__dynstat_g_sss_min         =  -1.4596580294121E-02
(PID.TID 0000.0001) %MON g__dynstat_g_sss_mean        =   1.8788596445284E-07
(PID.TID 0000.0001) %MON g__dynstat_g_sss_sd          =   2.2149865475149E-04
(PID.TID 0000.0001) %MON g__dynstat_g_sss_del2        =   1.7198254912880E-05
(PID.TID 0000.0001) %MON g__extforcing_g_qnet_max     =   0.0000000000000E+00
(PID.TID 0000.0001) %MON g__extforcing_g_qnet_min     =   0.0000000000000E+00
(PID.TID 0000.0001) %MON g__extforcing_g_qnet_mean    =   0.0000000000000E+00
(PID.TID 0000.0001) %MON g__extforcing_g_qnet_sd      =   0.0000000000000E+00
(PID.TID 0000.0001) %MON g__extforcing_g_qnet_del2    =   0.0000000000000E+00
(PID.TID 0000.0001) %MON g__extforcing_g_empmr_max    =   0.0000000000000E+00
(PID.TID 0000.0001) %MON g__extforcing_g_empmr_min    =   0.0000000000000E+00
(PID.TID 0000.0001) %MON g__extforcing_g_empmr_mean   =   0.0000000000000E+00
(PID.TID 0000.0001) %MON g__extforcing_g_empmr_sd     =   0.0000000000000E+00
(PID.TID 0000.0001) %MON g__extforcing_g_empmr_del2   =   0.0000000000000E+00
(PID.TID 0000.0001) %MON g__extforcing_g_fu_max       =   0.0000000000000E+00
(PID.TID 0000.0001) %MON g__extforcing_g_fu_min       =   0.0000000000000E+00
(PID.TID 0000.0001) %MON g__extforcing_g_fu_mean      =   0.0000000000000E+00
(PID.TID 0000.0001) %MON g__extforcing_g_fu_sd        =   0.0000000000000E+00
(PID.TID 0000.0001) %MON g__extforcing_g_fu_del2      =   0.0000000000000E+00
(PID.TID 0000.0001) %MON g__extforcing_g_fv_max       =   0.0000000000000E+00
(PID.TID 0000.0001) %MON g__extforcing_g_fv_min       =   0.0000000000000E+00
(PID.TID 0000.0001) %MON g__extforcing_g_fv_mean      =   0.0000000000000E+00
(PID.TID 0000.0001) %MON g__extforcing_g_fv_sd        =   0.0000000000000E+00
(PID.TID 0000.0001) %MON g__extforcing_g_fv_del2      =   0.0000000000000E+00
(PID.TID 0000.0001) %MON g__g_vcfl_g_uvel_max         =   4.5816368338287E-05
(PID.TID 0000.0001) %MON g__g_vcfl_g_vvel_max         =   2.6539212382351E-05
(PID.TID 0000.0001) %MON g__g_vcfl_g_wvel_max         =   5.2188626387934E-05
(PID.TID 0000.0001) %MON g__g_vcfl_g_W_hf_max         =   1.2181738414181E-04
(PID.TID 0000.0001) // =======================================================
(PID.TID 0000.0001) // End MONITOR dynamic field statistics
(PID.TID 0000.0001) // =======================================================
 cg2d: Sum(rhs),rhsMax =   9.53899274090783E-12  1.25350386210098E-02
 cg2d: Sum(rhs),rhsMax =   2.53150278517467E-12  9.12079410559005E+00
(PID.TID 0000.0001) // =======================================================
(PID.TID 0000.0001) // Begin MONITOR dynamic field statistics
(PID.TID 0000.0001) // =======================================================
(PID.TID 0000.0001) %MON g__time_tsnumber             =                   106
(PID.TID 0000.0001) %MON g__time_secondsf             =   4.5792000000000E+06
(PID.TID 0000.0001) %MON g__dynstat_g_eta_max         =   3.0797297749224E-03
(PID.TID 0000.0001) %MON g__dynstat_g_eta_min         =  -3.3778546753968E-05
(PID.TID 0000.0001) %MON g__dynstat_g_eta_mean        =  -7.5532434146751E-18
(PID.TID 0000.0001) %MON g__dynstat_g_eta_sd          =   4.0322368895967E-05
(PID.TID 0000.0001) %MON g__dynstat_g_eta_del2        =   1.9587911607008E-06
(PID.TID 0000.0001) %MON g__dynstat_g_uvel_max        =   2.5696924310375E-05
(PID.TID 0000.0001) %MON g__dynstat_g_uvel_min        =  -1.4612796668090E-04
(PID.TID 0000.0001) %MON g__dynstat_g_uvel_mean       =   2.0545877612764E-08
(PID.TID 0000.0001) %MON g__dynstat_g_uvel_sd         =   4.9092737531341E-07
(PID.TID 0000.0001) %MON g__dynstat_g_uvel_del2       =   4.5853147622129E-08
(PID.TID 0000.0001) %MON g__dynstat_g_vvel_max        =   2.6730383479029E-04
(PID.TID 0000.0001) %MON g__dynstat_g_vvel_min        =  -1.9393201870543E-04
(PID.TID 0000.0001) %MON g__dynstat_g_vvel_mean       =  -2.2284125773232E-08
(PID.TID 0000.0001) %MON g__dynstat_g_vvel_sd         =   6.4509935250222E-07
(PID.TID 0000.0001) %MON g__dynstat_g_vvel_del2       =   5.5868507914232E-08
(PID.TID 0000.0001) %MON g__dynstat_g_wvel_max        =   6.9061045871039E-08
(PID.TID 0000.0001) %MON g__dynstat_g_wvel_min        =  -7.5307075860847E-08
(PID.TID 0000.0001) %MON g__dynstat_g_wvel_mean       =   2.1442226382938E-27
(PID.TID 0000.0001) %MON g__dynstat_g_wvel_sd         =   4.6139629838717E-10
(PID.TID 0000.0001) %MON g__dynstat_g_wvel_del2       =   8.5322098352173E-11
(PID.TID 0000.0001) %MON g__dynstat_g_theta_max       =   4.1558659156741E-01
(PID.TID 0000.0001) %MON g__dynstat_g_theta_min       =  -5.4543898013465E-04
(PID.TID 0000.0001) %MON g__dynstat_g_theta_mean      =   2.7194604348224E-06
(PID.TID 0000.0001) %MON g__dynstat_g_theta_sd        =   7.2625091991189E-04
(PID.TID 0000.0001) %MON g__dynstat_g_theta_del2      =   2.7149809070717E-05
(PID.TID 0000.0001) %MON g__dynstat_g_salt_max        =   8.4777110357043E-03
(PID.TID 0000.0001) %MON g__dynstat_g_salt_min        =  -1.4555155231346E-02
(PID.TID 0000.0001) %MON g__dynstat_g_salt_mean       =   5.7518848270870E-09
(PID.TID 0000.0001) %MON g__dynstat_g_salt_sd         =   2.5577388062975E-05
(PID.TID 0000.0001) %MON g__dynstat_g_salt_del2       =   1.5952714885694E-06
(PID.TID 0000.0001) %MON g__dynstat_g_sst_max         =   4.1558659156741E-01
(PID.TID 0000.0001) %MON g__dynstat_g_sst_min         =  -8.8384700742947E-05
(PID.TID 0000.0001) %MON g__dynstat_g_sst_mean        =   1.0102730335137E-04
(PID.TID 0000.0001) %MON g__dynstat_g_sst_sd          =   5.4834742690003E-03
(PID.TID 0000.0001) %MON g__dynstat_g_sst_del2        =   2.2785929782831E-04
(PID.TID 0000.0001) %MON g__dynstat_g_sss_max         =   8.4777110357043E-03
(PID.TID 0000.0001) %MON g__dynstat_g_sss_min         =  -1.4555155231346E-02
(PID.TID 0000.0001) %MON g__dynstat_g_sss_mean        =   1.8863476216718E-07
(PID.TID 0000.0001) %MON g__dynstat_g_sss_sd          =   2.2090798881385E-04
(PID.TID 0000.0001) %MON g__dynstat_g_sss_del2        =   1.7145470467849E-05
(PID.TID 0000.0001) %MON g__extforcing_g_qnet_max     =   0.0000000000000E+00
(PID.TID 0000.0001) %MON g__extforcing_g_qnet_min     =   0.0000000000000E+00
(PID.TID 0000.0001) %MON g__extforcing_g_qnet_mean    =   0.0000000000000E+00
(PID.TID 0000.0001) %MON g__extforcing_g_qnet_sd      =   0.0000000000000E+00
(PID.TID 0000.0001) %MON g__extforcing_g_qnet_del2    =   0.0000000000000E+00
(PID.TID 0000.0001) %MON g__extforcing_g_empmr_max    =   0.0000000000000E+00
(PID.TID 0000.0001) %MON g__extforcing_g_empmr_min    =   0.0000000000000E+00
(PID.TID 0000.0001) %MON g__extforcing_g_empmr_mean   =   0.0000000000000E+00
(PID.TID 0000.0001) %MON g__extforcing_g_empmr_sd     =   0.0000000000000E+00
(PID.TID 0000.0001) %MON g__extforcing_g_empmr_del2   =   0.0000000000000E+00
(PID.TID 0000.0001) %MON g__extforcing_g_fu_max       =   0.0000000000000E+00
(PID.TID 0000.0001) %MON g__extforcing_g_fu_min       =   0.0000000000000E+00
(PID.TID 0000.0001) %MON g__extforcing_g_fu_mean      =   0.0000000000000E+00
(PID.TID 0000.0001) %MON g__extforcing_g_fu_sd        =   0.0000000000000E+00
(PID.TID 0000.0001) %MON g__extforcing_g_fu_del2      =   0.0000000000000E+00
(PID.TID 0000.0001) %MON g__extforcing_g_fv_max       =   0.0000000000000E+00
(PID.TID 0000.0001) %MON g__extforcing_g_fv_min       =   0.0000000000000E+00
(PID.TID 0000.0001) %MON g__extforcing_g_fv_mean      =   0.0000000000000E+00
(PID.TID 0000.0001) %MON g__extforcing_g_fv_sd        =   0.0000000000000E+00
(PID.TID 0000.0001) %MON g__extforcing_g_fv_del2      =   0.0000000000000E+00
(PID.TID 0000.0001) %MON g__g_vcfl_g_uvel_max         =   4.7576885951322E-05
(PID.TID 0000.0001) %MON g__g_vcfl_g_vvel_max         =   2.5966424030828E-05
(PID.TID 0000.0001) %MON g__g_vcfl_g_wvel_max         =   5.0697212060809E-05
(PID.TID 0000.0001) %MON g__g_vcfl_g_W_hf_max         =   1.1660403975054E-04
(PID.TID 0000.0001) // =======================================================
(PID.TID 0000.0001) // End MONITOR dynamic field statistics
(PID.TID 0000.0001) // =======================================================
 cg2d: Sum(rhs),rhsMax =   9.59556629845978E-12  1.23916940459704E-02
 cg2d: Sum(rhs),rhsMax =   2.63028487879069E-12  8.86256540630887E+00
(PID.TID 0000.0001) // =======================================================
(PID.TID 0000.0001) // Begin MONITOR dynamic field statistics
(PID.TID 0000.0001) // =======================================================
(PID.TID 0000.0001) %MON g__time_tsnumber             =                   107
(PID.TID 0000.0001) %MON g__time_secondsf             =   4.6224000000000E+06
(PID.TID 0000.0001) %MON g__dynstat_g_eta_max         =   3.0457150862000E-03
(PID.TID 0000.0001) %MON g__dynstat_g_eta_min         =  -3.5274929513203E-05
(PID.TID 0000.0001) %MON g__dynstat_g_eta_mean        =  -7.5043663321411E-18
(PID.TID 0000.0001) %MON g__dynstat_g_eta_sd          =   3.9907410413651E-05
(PID.TID 0000.0001) %MON g__dynstat_g_eta_del2        =   1.9361535642041E-06
(PID.TID 0000.0001) %MON g__dynstat_g_uvel_max        =   2.6249100774209E-05
(PID.TID 0000.0001) %MON g__dynstat_g_uvel_min        =  -1.4357427877036E-04
(PID.TID 0000.0001) %MON g__dynstat_g_uvel_mean       =   1.9932511308013E-08
(PID.TID 0000.0001) %MON g__dynstat_g_uvel_sd         =   4.8212532382693E-07
(PID.TID 0000.0001) %MON g__dynstat_g_uvel_del2       =   4.6314761413027E-08
(PID.TID 0000.0001) %MON g__dynstat_g_vvel_max        =   2.6213994204849E-04
(PID.TID 0000.0001) %MON g__dynstat_g_vvel_min        =  -1.9484665699272E-04
(PID.TID 0000.0001) %MON g__dynstat_g_vvel_mean       =  -2.3142048904304E-08
(PID.TID 0000.0001) %MON g__dynstat_g_vvel_sd         =   6.3996187908223E-07
(PID.TID 0000.0001) %MON g__dynstat_g_vvel_del2       =   5.5920226235660E-08
(PID.TID 0000.0001) %MON g__dynstat_g_wvel_max        =   7.0369147506168E-08
(PID.TID 0000.0001) %MON g__dynstat_g_wvel_min        =  -7.1695842084605E-08
(PID.TID 0000.0001) %MON g__dynstat_g_wvel_mean       =   1.8606325726045E-27
(PID.TID 0000.0001) %MON g__dynstat_g_wvel_sd         =   4.5785758134910E-10
(PID.TID 0000.0001) %MON g__dynstat_g_wvel_del2       =   8.6294589166319E-11
(PID.TID 0000.0001) %MON g__dynstat_g_theta_max       =   4.1073226902796E-01
(PID.TID 0000.0001) %MON g__dynstat_g_theta_min       =  -5.5249715029555E-04
(PID.TID 0000.0001) %MON g__dynstat_g_theta_mean      =   2.7057583763210E-06
(PID.TID 0000.0001) %MON g__dynstat_g_theta_sd        =   7.1975734761651E-04
(PID.TID 0000.0001) %MON g__dynstat_g_theta_del2      =   2.6862549419444E-05
(PID.TID 0000.0001) %MON g__dynstat_g_salt_max        =   8.4773963485279E-03
(PID.TID 0000.0001) %MON g__dynstat_g_salt_min        =  -1.4515575587945E-02
(PID.TID 0000.0001) %MON g__dynstat_g_salt_mean       =   5.7589705904366E-09
(PID.TID 0000.0001) %MON g__dynstat_g_salt_sd         =   2.5516355081523E-05
(PID.TID 0000.0001) %MON g__dynstat_g_salt_del2       =   1.5922883529469E-06
(PID.TID 0000.0001) %MON g__dynstat_g_sst_max         =   4.1073226902796E-01
(PID.TID 0000.0001) %MON g__dynstat_g_sst_min         =  -8.8191213477570E-05
(PID.TID 0000.0001) %MON g__dynstat_g_sst_mean        =   1.0011647589586E-04
(PID.TID 0000.0001) %MON g__dynstat_g_sst_sd          =   5.4241871383341E-03
(PID.TID 0000.0001) %MON g__dynstat_g_sst_del2        =   2.2486426128949E-04
(PID.TID 0000.0001) %MON g__dynstat_g_sss_max         =   8.4773963485279E-03
(PID.TID 0000.0001) %MON g__dynstat_g_sss_min         =  -1.4515575587945E-02
(PID.TID 0000.0001) %MON g__dynstat_g_sss_mean        =   1.8907283958952E-07
(PID.TID 0000.0001) %MON g__dynstat_g_sss_sd          =   2.2034887128293E-04
(PID.TID 0000.0001) %MON g__dynstat_g_sss_del2        =   1.7095113757724E-05
(PID.TID 0000.0001) %MON g__extforcing_g_qnet_max     =   0.0000000000000E+00
(PID.TID 0000.0001) %MON g__extforcing_g_qnet_min     =   0.0000000000000E+00
(PID.TID 0000.0001) %MON g__extforcing_g_qnet_mean    =   0.0000000000000E+00
(PID.TID 0000.0001) %MON g__extforcing_g_qnet_sd      =   0.0000000000000E+00
(PID.TID 0000.0001) %MON g__extforcing_g_qnet_del2    =   0.0000000000000E+00
(PID.TID 0000.0001) %MON g__extforcing_g_empmr_max    =   0.0000000000000E+00
(PID.TID 0000.0001) %MON g__extforcing_g_empmr_min    =   0.0000000000000E+00
(PID.TID 0000.0001) %MON g__extforcing_g_empmr_mean   =   0.0000000000000E+00
(PID.TID 0000.0001) %MON g__extforcing_g_empmr_sd     =   0.0000000000000E+00
(PID.TID 0000.0001) %MON g__extforcing_g_empmr_del2   =   0.0000000000000E+00
(PID.TID 0000.0001) %MON g__extforcing_g_fu_max       =   0.0000000000000E+00
(PID.TID 0000.0001) %MON g__extforcing_g_fu_min       =   0.0000000000000E+00
(PID.TID 0000.0001) %MON g__extforcing_g_fu_mean      =   0.0000000000000E+00
(PID.TID 0000.0001) %MON g__extforcing_g_fu_sd        =   0.0000000000000E+00
(PID.TID 0000.0001) %MON g__extforcing_g_fu_del2      =   0.0000000000000E+00
(PID.TID 0000.0001) %MON g__extforcing_g_fv_max       =   0.0000000000000E+00
(PID.TID 0000.0001) %MON g__extforcing_g_fv_min       =   0.0000000000000E+00
(PID.TID 0000.0001) %MON g__extforcing_g_fv_mean      =   0.0000000000000E+00
(PID.TID 0000.0001) %MON g__extforcing_g_fv_sd        =   0.0000000000000E+00
(PID.TID 0000.0001) %MON g__extforcing_g_fv_del2      =   0.0000000000000E+00
(PID.TID 0000.0001) %MON g__g_vcfl_g_uvel_max         =   4.8731859424732E-05
(PID.TID 0000.0001) %MON g__g_vcfl_g_vvel_max         =   2.5464793260403E-05
(PID.TID 0000.0001) %MON g__g_vcfl_g_wvel_max         =   4.8981151760277E-05
(PID.TID 0000.0001) %MON g__g_vcfl_g_W_hf_max         =   1.1117577896527E-04
(PID.TID 0000.0001) // =======================================================
(PID.TID 0000.0001) // End MONITOR dynamic field statistics
(PID.TID 0000.0001) // =======================================================
 cg2d: Sum(rhs),rhsMax =   9.63773119199828E-12  1.22532428025077E-02
 cg2d: Sum(rhs),rhsMax =   2.67112720830909E-12  8.89641373753400E+00
(PID.TID 0000.0001) // =======================================================
(PID.TID 0000.0001) // Begin MONITOR dynamic field statistics
(PID.TID 0000.0001) // =======================================================
(PID.TID 0000.0001) %MON g__time_tsnumber             =                   108
(PID.TID 0000.0001) %MON g__time_secondsf             =   4.6656000000000E+06
(PID.TID 0000.0001) %MON g__dynstat_g_eta_max         =   3.0129513983835E-03
(PID.TID 0000.0001) %MON g__dynstat_g_eta_min         =  -3.6453286797315E-05
(PID.TID 0000.0001) %MON g__dynstat_g_eta_mean        =  -7.4450554704816E-18
(PID.TID 0000.0001) %MON g__dynstat_g_eta_sd          =   3.9509521864769E-05
(PID.TID 0000.0001) %MON g__dynstat_g_eta_del2        =   1.9147383990152E-06
(PID.TID 0000.0001) %MON g__dynstat_g_uvel_max        =   2.6414091187965E-05
(PID.TID 0000.0001) %MON g__dynstat_g_uvel_min        =  -1.4088743169016E-04
(PID.TID 0000.0001) %MON g__dynstat_g_uvel_mean       =   1.9058576979927E-08
(PID.TID 0000.0001) %MON g__dynstat_g_uvel_sd         =   4.7079717007660E-07
(PID.TID 0000.0001) %MON g__dynstat_g_uvel_del2       =   4.6722900157538E-08
(PID.TID 0000.0001) %MON g__dynstat_g_vvel_max        =   2.5779541773773E-04
(PID.TID 0000.0001) %MON g__dynstat_g_vvel_min        =  -1.9510307968955E-04
(PID.TID 0000.0001) %MON g__dynstat_g_vvel_mean       =  -2.3983873417535E-08
(PID.TID 0000.0001) %MON g__dynstat_g_vvel_sd         =   6.3541737222416E-07
(PID.TID 0000.0001) %MON g__dynstat_g_vvel_del2       =   5.5947593148231E-08
(PID.TID 0000.0001) %MON g__dynstat_g_wvel_max        =   7.1749205642519E-08
(PID.TID 0000.0001) %MON g__dynstat_g_wvel_min        =  -6.8074631778828E-08
(PID.TID 0000.0001) %MON g__dynstat_g_wvel_mean       =  -1.5775784285943E-27
(PID.TID 0000.0001) %MON g__dynstat_g_wvel_sd         =   4.5446003077744E-10
(PID.TID 0000.0001) %MON g__dynstat_g_wvel_del2       =   8.7109445550079E-11
(PID.TID 0000.0001) %MON g__dynstat_g_theta_max       =   4.0596290123220E-01
(PID.TID 0000.0001) %MON g__dynstat_g_theta_min       =  -5.5956658204285E-04
(PID.TID 0000.0001) %MON g__dynstat_g_theta_mean      =   2.6921569550069E-06
(PID.TID 0000.0001) %MON g__dynstat_g_theta_sd        =   7.1342201565174E-04
(PID.TID 0000.0001) %MON g__dynstat_g_theta_del2      =   2.6582172230532E-05
(PID.TID 0000.0001) %MON g__dynstat_g_salt_max        =   8.4787001900904E-03
(PID.TID 0000.0001) %MON g__dynstat_g_salt_min        =  -1.4477996877069E-02
(PID.TID 0000.0001) %MON g__dynstat_g_salt_mean       =   5.7252528111021E-09
(PID.TID 0000.0001) %MON g__dynstat_g_salt_sd         =   2.5458837528499E-05
(PID.TID 0000.0001) %MON g__dynstat_g_salt_del2       =   1.5894432573386E-06
(PID.TID 0000.0001) %MON g__dynstat_g_sst_max         =   4.0596290123220E-01
(PID.TID 0000.0001) %MON g__dynstat_g_sst_min         =  -8.8089635403812E-05
(PID.TID 0000.0001) %MON g__dynstat_g_sst_mean        =   9.9220843792860E-05
(PID.TID 0000.0001) %MON g__dynstat_g_sst_sd          =   5.3659856562550E-03
(PID.TID 0000.0001) %MON g__dynstat_g_sst_del2        =   2.2192693721754E-04
(PID.TID 0000.0001) %MON g__dynstat_g_sss_max         =   8.4787001900904E-03
(PID.TID 0000.0001) %MON g__dynstat_g_sss_min         =  -1.4477996877069E-02
(PID.TID 0000.0001) %MON g__dynstat_g_sss_mean        =   1.8952266142133E-07
(PID.TID 0000.0001) %MON g__dynstat_g_sss_sd          =   2.1982349434971E-04
(PID.TID 0000.0001) %MON g__dynstat_g_sss_del2        =   1.7048013247493E-05
(PID.TID 0000.0001) %MON g__extforcing_g_qnet_max     =   0.0000000000000E+00
(PID.TID 0000.0001) %MON g__extforcing_g_qnet_min     =   0.0000000000000E+00
(PID.TID 0000.0001) %MON g__extforcing_g_qnet_mean    =   0.0000000000000E+00
(PID.TID 0000.0001) %MON g__extforcing_g_qnet_sd      =   0.0000000000000E+00
(PID.TID 0000.0001) %MON g__extforcing_g_qnet_del2    =   0.0000000000000E+00
(PID.TID 0000.0001) %MON g__extforcing_g_empmr_max    =   0.0000000000000E+00
(PID.TID 0000.0001) %MON g__extforcing_g_empmr_min    =   0.0000000000000E+00
(PID.TID 0000.0001) %MON g__extforcing_g_empmr_mean   =   0.0000000000000E+00
(PID.TID 0000.0001) %MON g__extforcing_g_empmr_sd     =   0.0000000000000E+00
(PID.TID 0000.0001) %MON g__extforcing_g_empmr_del2   =   0.0000000000000E+00
(PID.TID 0000.0001) %MON g__extforcing_g_fu_max       =   0.0000000000000E+00
(PID.TID 0000.0001) %MON g__extforcing_g_fu_min       =   0.0000000000000E+00
(PID.TID 0000.0001) %MON g__extforcing_g_fu_mean      =   0.0000000000000E+00
(PID.TID 0000.0001) %MON g__extforcing_g_fu_sd        =   0.0000000000000E+00
(PID.TID 0000.0001) %MON g__extforcing_g_fu_del2      =   0.0000000000000E+00
(PID.TID 0000.0001) %MON g__extforcing_g_fv_max       =   0.0000000000000E+00
(PID.TID 0000.0001) %MON g__extforcing_g_fv_min       =   0.0000000000000E+00
(PID.TID 0000.0001) %MON g__extforcing_g_fv_mean      =   0.0000000000000E+00
(PID.TID 0000.0001) %MON g__extforcing_g_fv_sd        =   0.0000000000000E+00
(PID.TID 0000.0001) %MON g__extforcing_g_fv_del2      =   0.0000000000000E+00
(PID.TID 0000.0001) %MON g__g_vcfl_g_uvel_max         =   4.9254380616532E-05
(PID.TID 0000.0001) %MON g__g_vcfl_g_vvel_max         =   2.5042757562510E-05
(PID.TID 0000.0001) %MON g__g_vcfl_g_wvel_max         =   4.7179710455758E-05
(PID.TID 0000.0001) %MON g__g_vcfl_g_W_hf_max         =   1.0567417166296E-04
(PID.TID 0000.0001) // =======================================================
(PID.TID 0000.0001) // End MONITOR dynamic field statistics
(PID.TID 0000.0001) // =======================================================
 cg2d: Sum(rhs),rhsMax =   9.67030267846761E-12  1.21195544720201E-02
 cg2d: Sum(rhs),rhsMax =   2.81692724701799E-12  8.91497210429915E+00
(PID.TID 0000.0001) // =======================================================
(PID.TID 0000.0001) // Begin MONITOR dynamic field statistics
(PID.TID 0000.0001) // =======================================================
(PID.TID 0000.0001) %MON g__time_tsnumber             =                   109
(PID.TID 0000.0001) %MON g__time_secondsf             =   4.7088000000000E+06
(PID.TID 0000.0001) %MON g__dynstat_g_eta_max         =   2.9814069894615E-03
(PID.TID 0000.0001) %MON g__dynstat_g_eta_min         =  -3.7314407802291E-05
(PID.TID 0000.0001) %MON g__dynstat_g_eta_mean        =  -7.3910549742150E-18
(PID.TID 0000.0001) %MON g__dynstat_g_eta_sd          =   3.9128235999610E-05
(PID.TID 0000.0001) %MON g__dynstat_g_eta_del2        =   1.8946271886993E-06
(PID.TID 0000.0001) %MON g__dynstat_g_uvel_max        =   2.6203165302792E-05
(PID.TID 0000.0001) %MON g__dynstat_g_uvel_min        =  -1.3943717011258E-04
(PID.TID 0000.0001) %MON g__dynstat_g_uvel_mean       =   1.7972135837328E-08
(PID.TID 0000.0001) %MON g__dynstat_g_uvel_sd         =   4.5723572976261E-07
(PID.TID 0000.0001) %MON g__dynstat_g_uvel_del2       =   4.7002173179525E-08
(PID.TID 0000.0001) %MON g__dynstat_g_vvel_max        =   2.5433429677968E-04
(PID.TID 0000.0001) %MON g__dynstat_g_vvel_min        =  -1.9466071305043E-04
(PID.TID 0000.0001) %MON g__dynstat_g_vvel_mean       =  -2.4789502315959E-08
(PID.TID 0000.0001) %MON g__dynstat_g_vvel_sd         =   6.3133523538857E-07
(PID.TID 0000.0001) %MON g__dynstat_g_vvel_del2       =   5.6007159800702E-08
(PID.TID 0000.0001) %MON g__dynstat_g_wvel_max        =   7.3161197374243E-08
(PID.TID 0000.0001) %MON g__dynstat_g_wvel_min        =  -6.4527144808975E-08
(PID.TID 0000.0001) %MON g__dynstat_g_wvel_mean       =   7.3135590977530E-27
(PID.TID 0000.0001) %MON g__dynstat_g_wvel_sd         =   4.5092603982867E-10
(PID.TID 0000.0001) %MON g__dynstat_g_wvel_del2       =   8.7679571746111E-11
(PID.TID 0000.0001) %MON g__dynstat_g_theta_max       =   4.0127245923474E-01
(PID.TID 0000.0001) %MON g__dynstat_g_theta_min       =  -5.6661509478611E-04
(PID.TID 0000.0001) %MON g__dynstat_g_theta_mean      =   2.6787376773310E-06
(PID.TID 0000.0001) %MON g__dynstat_g_theta_sd        =   7.0723705249561E-04
(PID.TID 0000.0001) %MON g__dynstat_g_theta_del2      =   2.6308687674046E-05
(PID.TID 0000.0001) %MON g__dynstat_g_salt_max        =   8.4814121437101E-03
(PID.TID 0000.0001) %MON g__dynstat_g_salt_min        =  -1.4442248524808E-02
(PID.TID 0000.0001) %MON g__dynstat_g_salt_mean       =   5.6525338888006E-09
(PID.TID 0000.0001) %MON g__dynstat_g_salt_sd         =   2.5404556863678E-05
(PID.TID 0000.0001) %MON g__dynstat_g_salt_del2       =   1.5867294458616E-06
(PID.TID 0000.0001) %MON g__dynstat_g_sst_max         =   4.0127245923474E-01
(PID.TID 0000.0001) %MON g__dynstat_g_sst_min         =  -8.8081936777040E-05
(PID.TID 0000.0001) %MON g__dynstat_g_sst_mean        =   9.8337544699264E-05
(PID.TID 0000.0001) %MON g__dynstat_g_sst_sd          =   5.3087918170325E-03
(PID.TID 0000.0001) %MON g__dynstat_g_sst_del2        =   2.1904259525715E-04
(PID.TID 0000.0001) %MON g__dynstat_g_sss_max         =   8.4814121437101E-03
(PID.TID 0000.0001) %MON g__dynstat_g_sss_min         =  -1.4442248524808E-02
(PID.TID 0000.0001) %MON g__dynstat_g_sss_mean        =   1.8978060377991E-07
(PID.TID 0000.0001) %MON g__dynstat_g_sss_sd          =   2.1932925580367E-04
(PID.TID 0000.0001) %MON g__dynstat_g_sss_del2        =   1.7003940948729E-05
(PID.TID 0000.0001) %MON g__extforcing_g_qnet_max     =   0.0000000000000E+00
(PID.TID 0000.0001) %MON g__extforcing_g_qnet_min     =   0.0000000000000E+00
(PID.TID 0000.0001) %MON g__extforcing_g_qnet_mean    =   0.0000000000000E+00
(PID.TID 0000.0001) %MON g__extforcing_g_qnet_sd      =   0.0000000000000E+00
(PID.TID 0000.0001) %MON g__extforcing_g_qnet_del2    =   0.0000000000000E+00
(PID.TID 0000.0001) %MON g__extforcing_g_empmr_max    =   0.0000000000000E+00
(PID.TID 0000.0001) %MON g__extforcing_g_empmr_min    =   0.0000000000000E+00
(PID.TID 0000.0001) %MON g__extforcing_g_empmr_mean   =   0.0000000000000E+00
(PID.TID 0000.0001) %MON g__extforcing_g_empmr_sd     =   0.0000000000000E+00
(PID.TID 0000.0001) %MON g__extforcing_g_empmr_del2   =   0.0000000000000E+00
(PID.TID 0000.0001) %MON g__extforcing_g_fu_max       =   0.0000000000000E+00
(PID.TID 0000.0001) %MON g__extforcing_g_fu_min       =   0.0000000000000E+00
(PID.TID 0000.0001) %MON g__extforcing_g_fu_mean      =   0.0000000000000E+00
(PID.TID 0000.0001) %MON g__extforcing_g_fu_sd        =   0.0000000000000E+00
(PID.TID 0000.0001) %MON g__extforcing_g_fu_del2      =   0.0000000000000E+00
(PID.TID 0000.0001) %MON g__extforcing_g_fv_max       =   0.0000000000000E+00
(PID.TID 0000.0001) %MON g__extforcing_g_fv_min       =   0.0000000000000E+00
(PID.TID 0000.0001) %MON g__extforcing_g_fv_mean      =   0.0000000000000E+00
(PID.TID 0000.0001) %MON g__extforcing_g_fv_sd        =   0.0000000000000E+00
(PID.TID 0000.0001) %MON g__extforcing_g_fv_del2      =   0.0000000000000E+00
(PID.TID 0000.0001) %MON g__g_vcfl_g_uvel_max         =   4.9141390449836E-05
(PID.TID 0000.0001) %MON g__g_vcfl_g_vvel_max         =   2.4706537416288E-05
(PID.TID 0000.0001) %MON g__g_vcfl_g_wvel_max         =   4.5423948847604E-05
(PID.TID 0000.0001) %MON g__g_vcfl_g_W_hf_max         =   1.0101604712983E-04
(PID.TID 0000.0001) // =======================================================
(PID.TID 0000.0001) // End MONITOR dynamic field statistics
(PID.TID 0000.0001) // =======================================================
 cg2d: Sum(rhs),rhsMax =   9.70003585917464E-12  1.19901588414208E-02
 cg2d: Sum(rhs),rhsMax =   2.43038228431303E-12  8.91793955647200E+00
(PID.TID 0000.0001) // =======================================================
(PID.TID 0000.0001) // Begin MONITOR dynamic field statistics
(PID.TID 0000.0001) // =======================================================
(PID.TID 0000.0001) %MON g__time_tsnumber             =                   110
(PID.TID 0000.0001) %MON g__time_secondsf             =   4.7520000000000E+06
(PID.TID 0000.0001) %MON g__dynstat_g_eta_max         =   2.9509681787381E-03
(PID.TID 0000.0001) %MON g__dynstat_g_eta_min         =  -3.7865847045900E-05
(PID.TID 0000.0001) %MON g__dynstat_g_eta_mean        =  -7.3430210946631E-18
(PID.TID 0000.0001) %MON g__dynstat_g_eta_sd          =   3.8762009817543E-05
(PID.TID 0000.0001) %MON g__dynstat_g_eta_del2        =   1.8753069148756E-06
(PID.TID 0000.0001) %MON g__dynstat_g_uvel_max        =   2.5640483385190E-05
(PID.TID 0000.0001) %MON g__dynstat_g_uvel_min        =  -1.3737190525199E-04
(PID.TID 0000.0001) %MON g__dynstat_g_uvel_mean       =   1.6727971300695E-08
(PID.TID 0000.0001) %MON g__dynstat_g_uvel_sd         =   4.4186919034090E-07
(PID.TID 0000.0001) %MON g__dynstat_g_uvel_del2       =   4.7196435985560E-08
(PID.TID 0000.0001) %MON g__dynstat_g_vvel_max        =   2.5179513468418E-04
(PID.TID 0000.0001) %MON g__dynstat_g_vvel_min        =  -1.9349921012475E-04
(PID.TID 0000.0001) %MON g__dynstat_g_vvel_mean       =  -2.5532486211282E-08
(PID.TID 0000.0001) %MON g__dynstat_g_vvel_sd         =   6.2760682440122E-07
(PID.TID 0000.0001) %MON g__dynstat_g_vvel_del2       =   5.5987838438266E-08
(PID.TID 0000.0001) %MON g__dynstat_g_wvel_max        =   7.4576932066746E-08
(PID.TID 0000.0001) %MON g__dynstat_g_wvel_min        =  -6.1122036986678E-08
(PID.TID 0000.0001) %MON g__dynstat_g_wvel_mean       =  -4.3531714908167E-27
(PID.TID 0000.0001) %MON g__dynstat_g_wvel_sd         =   4.4708676268599E-10
(PID.TID 0000.0001) %MON g__dynstat_g_wvel_del2       =   8.7920522658018E-11
(PID.TID 0000.0001) %MON g__dynstat_g_theta_max       =   3.9665046854404E-01
(PID.TID 0000.0001) %MON g__dynstat_g_theta_min       =  -5.7361287633295E-04
(PID.TID 0000.0001) %MON g__dynstat_g_theta_mean      =   2.6655387116512E-06
(PID.TID 0000.0001) %MON g__dynstat_g_theta_sd        =   7.0118444599439E-04
(PID.TID 0000.0001) %MON g__dynstat_g_theta_del2      =   2.6041328261568E-05
(PID.TID 0000.0001) %MON g__dynstat_g_salt_max        =   8.4852036942397E-03
(PID.TID 0000.0001) %MON g__dynstat_g_salt_min        =  -1.4407851542159E-02
(PID.TID 0000.0001) %MON g__dynstat_g_salt_mean       =   5.5444682182299E-09
(PID.TID 0000.0001) %MON g__dynstat_g_salt_sd         =   2.5352745370402E-05
(PID.TID 0000.0001) %MON g__dynstat_g_salt_del2       =   1.5841173918045E-06
(PID.TID 0000.0001) %MON g__dynstat_g_sst_max         =   3.9665046854404E-01
(PID.TID 0000.0001) %MON g__dynstat_g_sst_min         =  -8.8167007632510E-05
(PID.TID 0000.0001) %MON g__dynstat_g_sst_mean        =   9.7463431503198E-05
(PID.TID 0000.0001) %MON g__dynstat_g_sst_sd          =   5.2524709183535E-03
(PID.TID 0000.0001) %MON g__dynstat_g_sst_del2        =   2.1620485419097E-04
(PID.TID 0000.0001) %MON g__dynstat_g_sss_max         =   8.4852036942397E-03
(PID.TID 0000.0001) %MON g__dynstat_g_sss_min         =  -1.4407851542159E-02
(PID.TID 0000.0001) %MON g__dynstat_g_sss_mean        =   1.8977776282097E-07
(PID.TID 0000.0001) %MON g__dynstat_g_sss_sd          =   2.1885903878485E-04
(PID.TID 0000.0001) %MON g__dynstat_g_sss_del2        =   1.6962403805799E-05
(PID.TID 0000.0001) %MON g__extforcing_g_qnet_max     =   0.0000000000000E+00
(PID.TID 0000.0001) %MON g__extforcing_g_qnet_min     =   0.0000000000000E+00
(PID.TID 0000.0001) %MON g__extforcing_g_qnet_mean    =   0.0000000000000E+00
(PID.TID 0000.0001) %MON g__extforcing_g_qnet_sd      =   0.0000000000000E+00
(PID.TID 0000.0001) %MON g__extforcing_g_qnet_del2    =   0.0000000000000E+00
(PID.TID 0000.0001) %MON g__extforcing_g_empmr_max    =   0.0000000000000E+00
(PID.TID 0000.0001) %MON g__extforcing_g_empmr_min    =   0.0000000000000E+00
(PID.TID 0000.0001) %MON g__extforcing_g_empmr_mean   =   0.0000000000000E+00
(PID.TID 0000.0001) %MON g__extforcing_g_empmr_sd     =   0.0000000000000E+00
(PID.TID 0000.0001) %MON g__extforcing_g_empmr_del2   =   0.0000000000000E+00
(PID.TID 0000.0001) %MON g__extforcing_g_fu_max       =   0.0000000000000E+00
(PID.TID 0000.0001) %MON g__extforcing_g_fu_min       =   0.0000000000000E+00
(PID.TID 0000.0001) %MON g__extforcing_g_fu_mean      =   0.0000000000000E+00
(PID.TID 0000.0001) %MON g__extforcing_g_fu_sd        =   0.0000000000000E+00
(PID.TID 0000.0001) %MON g__extforcing_g_fu_del2      =   0.0000000000000E+00
(PID.TID 0000.0001) %MON g__extforcing_g_fv_max       =   0.0000000000000E+00
(PID.TID 0000.0001) %MON g__extforcing_g_fv_min       =   0.0000000000000E+00
(PID.TID 0000.0001) %MON g__extforcing_g_fv_mean      =   0.0000000000000E+00
(PID.TID 0000.0001) %MON g__extforcing_g_fv_sd        =   0.0000000000000E+00
(PID.TID 0000.0001) %MON g__extforcing_g_fv_del2      =   0.0000000000000E+00
(PID.TID 0000.0001) %MON g__g_vcfl_g_uvel_max         =   4.8413535841093E-05
(PID.TID 0000.0001) %MON g__g_vcfl_g_vvel_max         =   2.4459878180342E-05
(PID.TID 0000.0001) %MON g__g_vcfl_g_wvel_max         =   4.3831887441753E-05
(PID.TID 0000.0001) %MON g__g_vcfl_g_W_hf_max         =   1.0356735108146E-04
(PID.TID 0000.0001) // =======================================================
(PID.TID 0000.0001) // End MONITOR dynamic field statistics
(PID.TID 0000.0001) // =======================================================
 myIter=  110
(PID.TID 0000.0001) // Model state written, timestep       110
(PID.TID 0000.0001) 
 cg2d: Sum(rhs),rhsMax =   9.74120433364718E-12  1.18642917623000E-02
 cg2d: Sum(rhs),rhsMax =   2.76502432061676E-12  8.90561081994307E+00
(PID.TID 0000.0001) // =======================================================
(PID.TID 0000.0001) // Begin MONITOR dynamic field statistics
(PID.TID 0000.0001) // =======================================================
(PID.TID 0000.0001) %MON g__time_tsnumber             =                   111
(PID.TID 0000.0001) %MON g__time_secondsf             =   4.7952000000000E+06
(PID.TID 0000.0001) %MON g__dynstat_g_eta_max         =   2.9214510108267E-03
(PID.TID 0000.0001) %MON g__dynstat_g_eta_min         =  -3.8120395895622E-05
(PID.TID 0000.0001) %MON g__dynstat_g_eta_mean        =  -7.3079611040002E-18
(PID.TID 0000.0001) %MON g__dynstat_g_eta_sd          =   3.8408389466710E-05
(PID.TID 0000.0001) %MON g__dynstat_g_eta_del2        =   1.8572718075085E-06
(PID.TID 0000.0001) %MON g__dynstat_g_uvel_max        =   2.4762281592005E-05
(PID.TID 0000.0001) %MON g__dynstat_g_uvel_min        =  -1.3368474886483E-04
(PID.TID 0000.0001) %MON g__dynstat_g_uvel_mean       =   1.5384986041162E-08
(PID.TID 0000.0001) %MON g__dynstat_g_uvel_sd         =   4.2524937235056E-07
(PID.TID 0000.0001) %MON g__dynstat_g_uvel_del2       =   4.7223880402877E-08
(PID.TID 0000.0001) %MON g__dynstat_g_vvel_max        =   2.5018913428910E-04
(PID.TID 0000.0001) %MON g__dynstat_g_vvel_min        =  -1.9161760926023E-04
(PID.TID 0000.0001) %MON g__dynstat_g_vvel_mean       =  -2.6181773183578E-08
(PID.TID 0000.0001) %MON g__dynstat_g_vvel_sd         =   6.2416153363280E-07
(PID.TID 0000.0001) %MON g__dynstat_g_vvel_del2       =   5.5902320535923E-08
(PID.TID 0000.0001) %MON g__dynstat_g_wvel_max        =   7.5979235808769E-08
(PID.TID 0000.0001) %MON g__dynstat_g_wvel_min        =  -5.7911884242731E-08
(PID.TID 0000.0001) %MON g__dynstat_g_wvel_mean       =  -4.8946055072417E-27
(PID.TID 0000.0001) %MON g__dynstat_g_wvel_sd         =   4.4289359904970E-10
(PID.TID 0000.0001) %MON g__dynstat_g_wvel_del2       =   8.7934898197103E-11
(PID.TID 0000.0001) %MON g__dynstat_g_theta_max       =   3.9208278924219E-01
(PID.TID 0000.0001) %MON g__dynstat_g_theta_min       =  -5.8053373246440E-04
(PID.TID 0000.0001) %MON g__dynstat_g_theta_mean      =   2.6525539450270E-06
(PID.TID 0000.0001) %MON g__dynstat_g_theta_sd        =   6.9523750148217E-04
(PID.TID 0000.0001) %MON g__dynstat_g_theta_del2      =   2.5779226377345E-05
(PID.TID 0000.0001) %MON g__dynstat_g_salt_max        =   8.4896457137840E-03
(PID.TID 0000.0001) %MON g__dynstat_g_salt_min        =  -1.4374052882569E-02
(PID.TID 0000.0001) %MON g__dynstat_g_salt_mean       =   5.4062665090886E-09
(PID.TID 0000.0001) %MON g__dynstat_g_salt_sd         =   2.5302201813439E-05
(PID.TID 0000.0001) %MON g__dynstat_g_salt_del2       =   1.5816342382536E-06
(PID.TID 0000.0001) %MON g__dynstat_g_sst_max         =   3.9208278924219E-01
(PID.TID 0000.0001) %MON g__dynstat_g_sst_min         =  -8.8341261821291E-05
(PID.TID 0000.0001) %MON g__dynstat_g_sst_mean        =   9.6597406525392E-05
(PID.TID 0000.0001) %MON g__dynstat_g_sst_sd          =   5.1968415916975E-03
(PID.TID 0000.0001) %MON g__dynstat_g_sst_del2        =   2.1340536766315E-04
(PID.TID 0000.0001) %MON g__dynstat_g_sss_max         =   8.4896457137840E-03
(PID.TID 0000.0001) %MON g__dynstat_g_sss_min         =  -1.4374052882569E-02
(PID.TID 0000.0001) %MON g__dynstat_g_sss_mean        =   1.8994329975837E-07
(PID.TID 0000.0001) %MON g__dynstat_g_sss_sd          =   2.1840172970003E-04
(PID.TID 0000.0001) %MON g__dynstat_g_sss_del2        =   1.6922724528740E-05
(PID.TID 0000.0001) %MON g__extforcing_g_qnet_max     =   0.0000000000000E+00
(PID.TID 0000.0001) %MON g__extforcing_g_qnet_min     =   0.0000000000000E+00
(PID.TID 0000.0001) %MON g__extforcing_g_qnet_mean    =   0.0000000000000E+00
(PID.TID 0000.0001) %MON g__extforcing_g_qnet_sd      =   0.0000000000000E+00
(PID.TID 0000.0001) %MON g__extforcing_g_qnet_del2    =   0.0000000000000E+00
(PID.TID 0000.0001) %MON g__extforcing_g_empmr_max    =   0.0000000000000E+00
(PID.TID 0000.0001) %MON g__extforcing_g_empmr_min    =   0.0000000000000E+00
(PID.TID 0000.0001) %MON g__extforcing_g_empmr_mean   =   0.0000000000000E+00
(PID.TID 0000.0001) %MON g__extforcing_g_empmr_sd     =   0.0000000000000E+00
(PID.TID 0000.0001) %MON g__extforcing_g_empmr_del2   =   0.0000000000000E+00
(PID.TID 0000.0001) %MON g__extforcing_g_fu_max       =   0.0000000000000E+00
(PID.TID 0000.0001) %MON g__extforcing_g_fu_min       =   0.0000000000000E+00
(PID.TID 0000.0001) %MON g__extforcing_g_fu_mean      =   0.0000000000000E+00
(PID.TID 0000.0001) %MON g__extforcing_g_fu_sd        =   0.0000000000000E+00
(PID.TID 0000.0001) %MON g__extforcing_g_fu_del2      =   0.0000000000000E+00
(PID.TID 0000.0001) %MON g__extforcing_g_fv_max       =   0.0000000000000E+00
(PID.TID 0000.0001) %MON g__extforcing_g_fv_min       =   0.0000000000000E+00
(PID.TID 0000.0001) %MON g__extforcing_g_fv_mean      =   0.0000000000000E+00
(PID.TID 0000.0001) %MON g__extforcing_g_fv_sd        =   0.0000000000000E+00
(PID.TID 0000.0001) %MON g__extforcing_g_fv_del2      =   0.0000000000000E+00
(PID.TID 0000.0001) %MON g__g_vcfl_g_uvel_max         =   4.7114083252342E-05
(PID.TID 0000.0001) %MON g__g_vcfl_g_vvel_max         =   2.4303868120535E-05
(PID.TID 0000.0001) %MON g__g_vcfl_g_wvel_max         =   4.4208957124696E-05
(PID.TID 0000.0001) %MON g__g_vcfl_g_W_hf_max         =   1.0610149709927E-04
(PID.TID 0000.0001) // =======================================================
(PID.TID 0000.0001) // End MONITOR dynamic field statistics
(PID.TID 0000.0001) // =======================================================
 cg2d: Sum(rhs),rhsMax =   9.79570810859427E-12  1.17409515453506E-02
 cg2d: Sum(rhs),rhsMax =   1.87912185811712E-12  8.87885337906477E+00
(PID.TID 0000.0001) // =======================================================
(PID.TID 0000.0001) // Begin MONITOR dynamic field statistics
(PID.TID 0000.0001) // =======================================================
(PID.TID 0000.0001) %MON g__time_tsnumber             =                   112
(PID.TID 0000.0001) %MON g__time_secondsf             =   4.8384000000000E+06
(PID.TID 0000.0001) %MON g__dynstat_g_eta_max         =   2.8926150376062E-03
(PID.TID 0000.0001) %MON g__dynstat_g_eta_min         =  -3.8094885595697E-05
(PID.TID 0000.0001) %MON g__dynstat_g_eta_mean        =  -7.2779892544449E-18
(PID.TID 0000.0001) %MON g__dynstat_g_eta_sd          =   3.8064204207314E-05
(PID.TID 0000.0001) %MON g__dynstat_g_eta_del2        =   1.8407274133666E-06
(PID.TID 0000.0001) %MON g__dynstat_g_uvel_max        =   2.3615564670411E-05
(PID.TID 0000.0001) %MON g__dynstat_g_uvel_min        =  -1.2979490470393E-04
(PID.TID 0000.0001) %MON g__dynstat_g_uvel_mean       =   1.4003471823807E-08
(PID.TID 0000.0001) %MON g__dynstat_g_uvel_sd         =   4.0802777925311E-07
(PID.TID 0000.0001) %MON g__dynstat_g_uvel_del2       =   4.7121323933754E-08
(PID.TID 0000.0001) %MON g__dynstat_g_vvel_max        =   2.4949913328435E-04
(PID.TID 0000.0001) %MON g__dynstat_g_vvel_min        =  -1.8903306093444E-04
(PID.TID 0000.0001) %MON g__dynstat_g_vvel_mean       =  -2.6703851731862E-08
(PID.TID 0000.0001) %MON g__dynstat_g_vvel_sd         =   6.2097515435267E-07
(PID.TID 0000.0001) %MON g__dynstat_g_vvel_del2       =   5.5743159430260E-08
(PID.TID 0000.0001) %MON g__dynstat_g_wvel_max        =   7.7360432991582E-08
(PID.TID 0000.0001) %MON g__dynstat_g_wvel_min        =  -5.4933086174201E-08
(PID.TID 0000.0001) %MON g__dynstat_g_wvel_mean       =   4.5747149506726E-27
(PID.TID 0000.0001) %MON g__dynstat_g_wvel_sd         =   4.3841019169632E-10
(PID.TID 0000.0001) %MON g__dynstat_g_wvel_del2       =   8.7728763351354E-11
(PID.TID 0000.0001) %MON g__dynstat_g_theta_max       =   3.8755259182320E-01
(PID.TID 0000.0001) %MON g__dynstat_g_theta_min       =  -5.8735603084051E-04
(PID.TID 0000.0001) %MON g__dynstat_g_theta_mean      =   2.6397352932930E-06
(PID.TID 0000.0001) %MON g__dynstat_g_theta_sd        =   6.8936276702619E-04
(PID.TID 0000.0001) %MON g__dynstat_g_theta_del2      =   2.5521147430033E-05
(PID.TID 0000.0001) %MON g__dynstat_g_salt_max        =   8.4942313818777E-03
(PID.TID 0000.0001) %MON g__dynstat_g_salt_min        =  -1.4339875718811E-02
(PID.TID 0000.0001) %MON g__dynstat_g_salt_mean       =   5.2441675366796E-09
(PID.TID 0000.0001) %MON g__dynstat_g_salt_sd         =   2.5251372283722E-05
(PID.TID 0000.0001) %MON g__dynstat_g_salt_del2       =   1.5791808171346E-06
(PID.TID 0000.0001) %MON g__dynstat_g_sst_max         =   3.8755259182320E-01
(PID.TID 0000.0001) %MON g__dynstat_g_sst_min         =  -8.8599309578928E-05
(PID.TID 0000.0001) %MON g__dynstat_g_sst_mean        =   9.5736212099288E-05
(PID.TID 0000.0001) %MON g__dynstat_g_sst_sd          =   5.1416884476391E-03
(PID.TID 0000.0001) %MON g__dynstat_g_sst_del2        =   2.1063377864288E-04
(PID.TID 0000.0001) %MON g__dynstat_g_sss_max         =   8.4942313818777E-03
(PID.TID 0000.0001) %MON g__dynstat_g_sss_min         =  -1.4339875718811E-02
(PID.TID 0000.0001) %MON g__dynstat_g_sss_mean        =   1.9056563677411E-07
(PID.TID 0000.0001) %MON g__dynstat_g_sss_sd          =   2.1794297036811E-04
(PID.TID 0000.0001) %MON g__dynstat_g_sss_del2        =   1.6883213498610E-05
(PID.TID 0000.0001) %MON g__extforcing_g_qnet_max     =   0.0000000000000E+00
(PID.TID 0000.0001) %MON g__extforcing_g_qnet_min     =   0.0000000000000E+00
(PID.TID 0000.0001) %MON g__extforcing_g_qnet_mean    =   0.0000000000000E+00
(PID.TID 0000.0001) %MON g__extforcing_g_qnet_sd      =   0.0000000000000E+00
(PID.TID 0000.0001) %MON g__extforcing_g_qnet_del2    =   0.0000000000000E+00
(PID.TID 0000.0001) %MON g__extforcing_g_empmr_max    =   0.0000000000000E+00
(PID.TID 0000.0001) %MON g__extforcing_g_empmr_min    =   0.0000000000000E+00
(PID.TID 0000.0001) %MON g__extforcing_g_empmr_mean   =   0.0000000000000E+00
(PID.TID 0000.0001) %MON g__extforcing_g_empmr_sd     =   0.0000000000000E+00
(PID.TID 0000.0001) %MON g__extforcing_g_empmr_del2   =   0.0000000000000E+00
(PID.TID 0000.0001) %MON g__extforcing_g_fu_max       =   0.0000000000000E+00
(PID.TID 0000.0001) %MON g__extforcing_g_fu_min       =   0.0000000000000E+00
(PID.TID 0000.0001) %MON g__extforcing_g_fu_mean      =   0.0000000000000E+00
(PID.TID 0000.0001) %MON g__extforcing_g_fu_sd        =   0.0000000000000E+00
(PID.TID 0000.0001) %MON g__extforcing_g_fu_del2      =   0.0000000000000E+00
(PID.TID 0000.0001) %MON g__extforcing_g_fv_max       =   0.0000000000000E+00
(PID.TID 0000.0001) %MON g__extforcing_g_fv_min       =   0.0000000000000E+00
(PID.TID 0000.0001) %MON g__extforcing_g_fv_mean      =   0.0000000000000E+00
(PID.TID 0000.0001) %MON g__extforcing_g_fv_sd        =   0.0000000000000E+00
(PID.TID 0000.0001) %MON g__extforcing_g_fv_del2      =   0.0000000000000E+00
(PID.TID 0000.0001) %MON g__g_vcfl_g_uvel_max         =   4.5306958382425E-05
(PID.TID 0000.0001) %MON g__g_vcfl_g_vvel_max         =   2.4236840056067E-05
(PID.TID 0000.0001) %MON g__g_vcfl_g_wvel_max         =   4.5242917944528E-05
(PID.TID 0000.0001) %MON g__g_vcfl_g_W_hf_max         =   1.0858300306687E-04
(PID.TID 0000.0001) // =======================================================
(PID.TID 0000.0001) // End MONITOR dynamic field statistics
(PID.TID 0000.0001) // =======================================================
 cg2d: Sum(rhs),rhsMax =   9.85573947486548E-12  1.16189643102066E-02
 cg2d: Sum(rhs),rhsMax =   2.69159000643171E-12  8.83905900826780E+00
(PID.TID 0000.0001) // =======================================================
(PID.TID 0000.0001) // Begin MONITOR dynamic field statistics
(PID.TID 0000.0001) // =======================================================
(PID.TID 0000.0001) %MON g__time_tsnumber             =                   113
(PID.TID 0000.0001) %MON g__time_secondsf             =   4.8816000000000E+06
(PID.TID 0000.0001) %MON g__dynstat_g_eta_max         =   2.8641788091520E-03
(PID.TID 0000.0001) %MON g__dynstat_g_eta_min         =  -3.7809374734375E-05
(PID.TID 0000.0001) %MON g__dynstat_g_eta_mean        =  -7.2352547502738E-18
(PID.TID 0000.0001) %MON g__dynstat_g_eta_sd          =   3.7725781139960E-05
(PID.TID 0000.0001) %MON g__dynstat_g_eta_del2        =   1.8251137493371E-06
(PID.TID 0000.0001) %MON g__dynstat_g_uvel_max        =   2.2256305599351E-05
(PID.TID 0000.0001) %MON g__dynstat_g_uvel_min        =  -1.2716773657128E-04
(PID.TID 0000.0001) %MON g__dynstat_g_uvel_mean       =   1.2642400120507E-08
(PID.TID 0000.0001) %MON g__dynstat_g_uvel_sd         =   3.9091701960386E-07
(PID.TID 0000.0001) %MON g__dynstat_g_uvel_del2       =   4.6951092031281E-08
(PID.TID 0000.0001) %MON g__dynstat_g_vvel_max        =   2.4967949768046E-04
(PID.TID 0000.0001) %MON g__dynstat_g_vvel_min        =  -1.8577922591279E-04
(PID.TID 0000.0001) %MON g__dynstat_g_vvel_mean       =  -2.7065122990910E-08
(PID.TID 0000.0001) %MON g__dynstat_g_vvel_sd         =   6.1806952285777E-07
(PID.TID 0000.0001) %MON g__dynstat_g_vvel_del2       =   5.5566696541341E-08
(PID.TID 0000.0001) %MON g__dynstat_g_wvel_max        =   7.8720266646322E-08
(PID.TID 0000.0001) %MON g__dynstat_g_wvel_min        =  -5.2206626761732E-08
(PID.TID 0000.0001) %MON g__dynstat_g_wvel_mean       =  -3.8022877533553E-27
(PID.TID 0000.0001) %MON g__dynstat_g_wvel_sd         =   4.3378884200156E-10
(PID.TID 0000.0001) %MON g__dynstat_g_wvel_del2       =   8.7308090504475E-11
(PID.TID 0000.0001) %MON g__dynstat_g_theta_max       =   3.8304148244005E-01
(PID.TID 0000.0001) %MON g__dynstat_g_theta_min       =  -5.9406330049594E-04
(PID.TID 0000.0001) %MON g__dynstat_g_theta_mean      =   2.6269988624657E-06
(PID.TID 0000.0001) %MON g__dynstat_g_theta_sd        =   6.8352231123265E-04
(PID.TID 0000.0001) %MON g__dynstat_g_theta_del2      =   2.5267349258172E-05
(PID.TID 0000.0001) %MON g__dynstat_g_salt_max        =   8.4984034460938E-03
(PID.TID 0000.0001) %MON g__dynstat_g_salt_min        =  -1.4304183781686E-02
(PID.TID 0000.0001) %MON g__dynstat_g_salt_mean       =   5.0652135429844E-09
(PID.TID 0000.0001) %MON g__dynstat_g_salt_sd         =   2.5198451237638E-05
(PID.TID 0000.0001) %MON g__dynstat_g_salt_del2       =   1.5768830123402E-06
(PID.TID 0000.0001) %MON g__dynstat_g_sst_max         =   3.8304148244005E-01
(PID.TID 0000.0001) %MON g__dynstat_g_sst_min         =  -8.8934681352754E-05
(PID.TID 0000.0001) %MON g__dynstat_g_sst_mean        =   9.4869632548610E-05
(PID.TID 0000.0001) %MON g__dynstat_g_sst_sd          =   5.0867766114382E-03
(PID.TID 0000.0001) %MON g__dynstat_g_sst_del2        =   2.0788176265378E-04
(PID.TID 0000.0001) %MON g__dynstat_g_sss_max         =   8.4984034460938E-03
(PID.TID 0000.0001) %MON g__dynstat_g_sss_min         =  -1.4304183781686E-02
(PID.TID 0000.0001) %MON g__dynstat_g_sss_mean        =   1.9025693096376E-07
(PID.TID 0000.0001) %MON g__dynstat_g_sss_sd          =   2.1746611140703E-04
(PID.TID 0000.0001) %MON g__dynstat_g_sss_del2        =   1.6844008631235E-05
(PID.TID 0000.0001) %MON g__extforcing_g_qnet_max     =   0.0000000000000E+00
(PID.TID 0000.0001) %MON g__extforcing_g_qnet_min     =   0.0000000000000E+00
(PID.TID 0000.0001) %MON g__extforcing_g_qnet_mean    =   0.0000000000000E+00
(PID.TID 0000.0001) %MON g__extforcing_g_qnet_sd      =   0.0000000000000E+00
(PID.TID 0000.0001) %MON g__extforcing_g_qnet_del2    =   0.0000000000000E+00
(PID.TID 0000.0001) %MON g__extforcing_g_empmr_max    =   0.0000000000000E+00
(PID.TID 0000.0001) %MON g__extforcing_g_empmr_min    =   0.0000000000000E+00
(PID.TID 0000.0001) %MON g__extforcing_g_empmr_mean   =   0.0000000000000E+00
(PID.TID 0000.0001) %MON g__extforcing_g_empmr_sd     =   0.0000000000000E+00
(PID.TID 0000.0001) %MON g__extforcing_g_empmr_del2   =   0.0000000000000E+00
(PID.TID 0000.0001) %MON g__extforcing_g_fu_max       =   0.0000000000000E+00
(PID.TID 0000.0001) %MON g__extforcing_g_fu_min       =   0.0000000000000E+00
(PID.TID 0000.0001) %MON g__extforcing_g_fu_mean      =   0.0000000000000E+00
(PID.TID 0000.0001) %MON g__extforcing_g_fu_sd        =   0.0000000000000E+00
(PID.TID 0000.0001) %MON g__extforcing_g_fu_del2      =   0.0000000000000E+00
(PID.TID 0000.0001) %MON g__extforcing_g_fv_max       =   0.0000000000000E+00
(PID.TID 0000.0001) %MON g__extforcing_g_fv_min       =   0.0000000000000E+00
(PID.TID 0000.0001) %MON g__extforcing_g_fv_mean      =   0.0000000000000E+00
(PID.TID 0000.0001) %MON g__extforcing_g_fv_sd        =   0.0000000000000E+00
(PID.TID 0000.0001) %MON g__extforcing_g_fv_del2      =   0.0000000000000E+00
(PID.TID 0000.0001) %MON g__g_vcfl_g_uvel_max         =   4.3074003028002E-05
(PID.TID 0000.0001) %MON g__g_vcfl_g_vvel_max         =   2.4254361010800E-05
(PID.TID 0000.0001) %MON g__g_vcfl_g_wvel_max         =   4.6245007683220E-05
(PID.TID 0000.0001) %MON g__g_vcfl_g_W_hf_max         =   1.1098801843973E-04
(PID.TID 0000.0001) // =======================================================
(PID.TID 0000.0001) // End MONITOR dynamic field statistics
(PID.TID 0000.0001) // =======================================================
 cg2d: Sum(rhs),rhsMax =   9.90262936890552E-12  1.14970558841983E-02
 cg2d: Sum(rhs),rhsMax =   2.86636686608333E-12  8.78807252840719E+00
(PID.TID 0000.0001) // =======================================================
(PID.TID 0000.0001) // Begin MONITOR dynamic field statistics
(PID.TID 0000.0001) // =======================================================
(PID.TID 0000.0001) %MON g__time_tsnumber             =                   114
(PID.TID 0000.0001) %MON g__time_secondsf             =   4.9248000000000E+06
(PID.TID 0000.0001) %MON g__dynstat_g_eta_max         =   2.8358373122669E-03
(PID.TID 0000.0001) %MON g__dynstat_g_eta_min         =  -3.7286685672894E-05
(PID.TID 0000.0001) %MON g__dynstat_g_eta_mean        =  -7.1619984168710E-18
(PID.TID 0000.0001) %MON g__dynstat_g_eta_sd          =   3.7389191143395E-05
(PID.TID 0000.0001) %MON g__dynstat_g_eta_del2        =   1.8099626982575E-06
(PID.TID 0000.0001) %MON g__dynstat_g_uvel_max        =   2.0747247349876E-05
(PID.TID 0000.0001) %MON g__dynstat_g_uvel_min        =  -1.2468359913161E-04
(PID.TID 0000.0001) %MON g__dynstat_g_uvel_mean       =   1.1356230001598E-08
(PID.TID 0000.0001) %MON g__dynstat_g_uvel_sd         =   3.7466826993647E-07
(PID.TID 0000.0001) %MON g__dynstat_g_uvel_del2       =   4.6770284977411E-08
(PID.TID 0000.0001) %MON g__dynstat_g_vvel_max        =   2.5065694559608E-04
(PID.TID 0000.0001) %MON g__dynstat_g_vvel_min        =  -1.8190267796888E-04
(PID.TID 0000.0001) %MON g__dynstat_g_vvel_mean       =  -2.7234113257110E-08
(PID.TID 0000.0001) %MON g__dynstat_g_vvel_sd         =   6.1549432970787E-07
(PID.TID 0000.0001) %MON g__dynstat_g_vvel_del2       =   5.5442813801903E-08
(PID.TID 0000.0001) %MON g__dynstat_g_wvel_max        =   8.0063535312257E-08
(PID.TID 0000.0001) %MON g__dynstat_g_wvel_min        =  -4.9735528521674E-08
(PID.TID 0000.0001) %MON g__dynstat_g_wvel_mean       =   3.3123022181291E-27
(PID.TID 0000.0001) %MON g__dynstat_g_wvel_sd         =   4.2904936654919E-10
(PID.TID 0000.0001) %MON g__dynstat_g_wvel_del2       =   8.6676776319640E-11
(PID.TID 0000.0001) %MON g__dynstat_g_theta_max       =   3.7853071646482E-01
(PID.TID 0000.0001) %MON g__dynstat_g_theta_min       =  -6.0048532132120E-04
(PID.TID 0000.0001) %MON g__dynstat_g_theta_mean      =   2.6142363234948E-06
(PID.TID 0000.0001) %MON g__dynstat_g_theta_sd        =   6.7767638571050E-04
(PID.TID 0000.0001) %MON g__dynstat_g_theta_del2      =   2.5012648623343E-05
(PID.TID 0000.0001) %MON g__dynstat_g_salt_max        =   8.5015844646065E-03
(PID.TID 0000.0001) %MON g__dynstat_g_salt_min        =  -1.4265756698155E-02
(PID.TID 0000.0001) %MON g__dynstat_g_salt_mean       =   4.8774818830975E-09
(PID.TID 0000.0001) %MON g__dynstat_g_salt_sd         =   2.5141512036125E-05
(PID.TID 0000.0001) %MON g__dynstat_g_salt_del2       =   1.5745187546802E-06
(PID.TID 0000.0001) %MON g__dynstat_g_sst_max         =   3.7853071646482E-01
(PID.TID 0000.0001) %MON g__dynstat_g_sst_min         =  -8.9340502709924E-05
(PID.TID 0000.0001) %MON g__dynstat_g_sst_mean        =   9.3996363856919E-05
(PID.TID 0000.0001) %MON g__dynstat_g_sst_sd          =   5.0318669516685E-03
(PID.TID 0000.0001) %MON g__dynstat_g_sst_del2        =   2.0513713432031E-04
(PID.TID 0000.0001) %MON g__dynstat_g_sss_max         =   8.5015844646065E-03
(PID.TID 0000.0001) %MON g__dynstat_g_sss_min         =  -1.4265756698155E-02
(PID.TID 0000.0001) %MON g__dynstat_g_sss_mean        =   1.8965445348604E-07
(PID.TID 0000.0001) %MON g__dynstat_g_sss_sd          =   2.1695329365756E-04
(PID.TID 0000.0001) %MON g__dynstat_g_sss_del2        =   1.6803517271549E-05
(PID.TID 0000.0001) %MON g__extforcing_g_qnet_max     =   0.0000000000000E+00
(PID.TID 0000.0001) %MON g__extforcing_g_qnet_min     =   0.0000000000000E+00
(PID.TID 0000.0001) %MON g__extforcing_g_qnet_mean    =   0.0000000000000E+00
(PID.TID 0000.0001) %MON g__extforcing_g_qnet_sd      =   0.0000000000000E+00
(PID.TID 0000.0001) %MON g__extforcing_g_qnet_del2    =   0.0000000000000E+00
(PID.TID 0000.0001) %MON g__extforcing_g_empmr_max    =   0.0000000000000E+00
(PID.TID 0000.0001) %MON g__extforcing_g_empmr_min    =   0.0000000000000E+00
(PID.TID 0000.0001) %MON g__extforcing_g_empmr_mean   =   0.0000000000000E+00
(PID.TID 0000.0001) %MON g__extforcing_g_empmr_sd     =   0.0000000000000E+00
(PID.TID 0000.0001) %MON g__extforcing_g_empmr_del2   =   0.0000000000000E+00
(PID.TID 0000.0001) %MON g__extforcing_g_fu_max       =   0.0000000000000E+00
(PID.TID 0000.0001) %MON g__extforcing_g_fu_min       =   0.0000000000000E+00
(PID.TID 0000.0001) %MON g__extforcing_g_fu_mean      =   0.0000000000000E+00
(PID.TID 0000.0001) %MON g__extforcing_g_fu_sd        =   0.0000000000000E+00
(PID.TID 0000.0001) %MON g__extforcing_g_fu_del2      =   0.0000000000000E+00
(PID.TID 0000.0001) %MON g__extforcing_g_fv_max       =   0.0000000000000E+00
(PID.TID 0000.0001) %MON g__extforcing_g_fv_min       =   0.0000000000000E+00
(PID.TID 0000.0001) %MON g__extforcing_g_fv_mean      =   0.0000000000000E+00
(PID.TID 0000.0001) %MON g__extforcing_g_fv_sd        =   0.0000000000000E+00
(PID.TID 0000.0001) %MON g__extforcing_g_fv_del2      =   0.0000000000000E+00
(PID.TID 0000.0001) %MON g__g_vcfl_g_uvel_max         =   4.0511542968345E-05
(PID.TID 0000.0001) %MON g__g_vcfl_g_vvel_max         =   2.4349312237613E-05
(PID.TID 0000.0001) %MON g__g_vcfl_g_wvel_max         =   4.7209060506999E-05
(PID.TID 0000.0001) %MON g__g_vcfl_g_W_hf_max         =   1.1330174521680E-04
(PID.TID 0000.0001) // =======================================================
(PID.TID 0000.0001) // End MONITOR dynamic field statistics
(PID.TID 0000.0001) // =======================================================
 cg2d: Sum(rhs),rhsMax =   9.91097906055758E-12  1.13739347823820E-02
 cg2d: Sum(rhs),rhsMax =   2.18331602797051E-12  8.72810172445273E+00
(PID.TID 0000.0001) // =======================================================
(PID.TID 0000.0001) // Begin MONITOR dynamic field statistics
(PID.TID 0000.0001) // =======================================================
(PID.TID 0000.0001) %MON g__time_tsnumber             =                   115
(PID.TID 0000.0001) %MON g__time_secondsf             =   4.9680000000000E+06
(PID.TID 0000.0001) %MON g__dynstat_g_eta_max         =   2.8072782039586E-03
(PID.TID 0000.0001) %MON g__dynstat_g_eta_min         =  -3.6552441720997E-05
(PID.TID 0000.0001) %MON g__dynstat_g_eta_mean        =  -7.0483352115581E-18
(PID.TID 0000.0001) %MON g__dynstat_g_eta_sd          =   3.7050419564038E-05
(PID.TID 0000.0001) %MON g__dynstat_g_eta_del2        =   1.7937787778581E-06
(PID.TID 0000.0001) %MON g__dynstat_g_uvel_max        =   1.9155308942736E-05
(PID.TID 0000.0001) %MON g__dynstat_g_uvel_min        =  -1.2236691731324E-04
(PID.TID 0000.0001) %MON g__dynstat_g_uvel_mean       =   1.0194406641741E-08
(PID.TID 0000.0001) %MON g__dynstat_g_uvel_sd         =   3.5989006660987E-07
(PID.TID 0000.0001) %MON g__dynstat_g_uvel_del2       =   4.6507598575240E-08
(PID.TID 0000.0001) %MON g__dynstat_g_vvel_max        =   2.5233242851278E-04
(PID.TID 0000.0001) %MON g__dynstat_g_vvel_min        =  -1.7746607647693E-04
(PID.TID 0000.0001) %MON g__dynstat_g_vvel_mean       =  -2.7184188322168E-08
(PID.TID 0000.0001) %MON g__dynstat_g_vvel_sd         =   6.1334609648111E-07
(PID.TID 0000.0001) %MON g__dynstat_g_vvel_del2       =   5.5329356453702E-08
(PID.TID 0000.0001) %MON g__dynstat_g_wvel_max        =   8.1397219247888E-08
(PID.TID 0000.0001) %MON g__dynstat_g_wvel_min        =  -4.7523288299755E-08
(PID.TID 0000.0001) %MON g__dynstat_g_wvel_mean       =  -2.5899235433385E-29
(PID.TID 0000.0001) %MON g__dynstat_g_wvel_sd         =   4.2470340032453E-10
(PID.TID 0000.0001) %MON g__dynstat_g_wvel_del2       =   8.5990267807827E-11
(PID.TID 0000.0001) %MON g__dynstat_g_theta_max       =   3.7400242044379E-01
(PID.TID 0000.0001) %MON g__dynstat_g_theta_min       =  -6.0679101962301E-04
(PID.TID 0000.0001) %MON g__dynstat_g_theta_mean      =   2.6013189628572E-06
(PID.TID 0000.0001) %MON g__dynstat_g_theta_sd        =   6.7178594050210E-04
(PID.TID 0000.0001) %MON g__dynstat_g_theta_del2      =   2.4757225378729E-05
(PID.TID 0000.0001) %MON g__dynstat_g_salt_max        =   8.5032080048090E-03
(PID.TID 0000.0001) %MON g__dynstat_g_salt_min        =  -1.4223371712849E-02
(PID.TID 0000.0001) %MON g__dynstat_g_salt_mean       =   4.6886643512509E-09
(PID.TID 0000.0001) %MON g__dynstat_g_salt_sd         =   2.5078607874452E-05
(PID.TID 0000.0001) %MON g__dynstat_g_salt_del2       =   1.5720708238490E-06
(PID.TID 0000.0001) %MON g__dynstat_g_sst_max         =   3.7400242044379E-01
(PID.TID 0000.0001) %MON g__dynstat_g_sst_min         =  -8.9810037534330E-05
(PID.TID 0000.0001) %MON g__dynstat_g_sst_mean        =   9.3113726697483E-05
(PID.TID 0000.0001) %MON g__dynstat_g_sst_sd          =   4.9767319426678E-03
(PID.TID 0000.0001) %MON g__dynstat_g_sst_del2        =   2.0239035043141E-04
(PID.TID 0000.0001) %MON g__dynstat_g_sss_max         =   8.5032080048090E-03
(PID.TID 0000.0001) %MON g__dynstat_g_sss_min         =  -1.4223371712849E-02
(PID.TID 0000.0001) %MON g__dynstat_g_sss_mean        =   1.8919251726521E-07
(PID.TID 0000.0001) %MON g__dynstat_g_sss_sd          =   2.1638664781963E-04
(PID.TID 0000.0001) %MON g__dynstat_g_sss_del2        =   1.6760167178571E-05
(PID.TID 0000.0001) %MON g__extforcing_g_qnet_max     =   0.0000000000000E+00
(PID.TID 0000.0001) %MON g__extforcing_g_qnet_min     =   0.0000000000000E+00
(PID.TID 0000.0001) %MON g__extforcing_g_qnet_mean    =   0.0000000000000E+00
(PID.TID 0000.0001) %MON g__extforcing_g_qnet_sd      =   0.0000000000000E+00
(PID.TID 0000.0001) %MON g__extforcing_g_qnet_del2    =   0.0000000000000E+00
(PID.TID 0000.0001) %MON g__extforcing_g_empmr_max    =   0.0000000000000E+00
(PID.TID 0000.0001) %MON g__extforcing_g_empmr_min    =   0.0000000000000E+00
(PID.TID 0000.0001) %MON g__extforcing_g_empmr_mean   =   0.0000000000000E+00
(PID.TID 0000.0001) %MON g__extforcing_g_empmr_sd     =   0.0000000000000E+00
(PID.TID 0000.0001) %MON g__extforcing_g_empmr_del2   =   0.0000000000000E+00
(PID.TID 0000.0001) %MON g__extforcing_g_fu_max       =   0.0000000000000E+00
(PID.TID 0000.0001) %MON g__extforcing_g_fu_min       =   0.0000000000000E+00
(PID.TID 0000.0001) %MON g__extforcing_g_fu_mean      =   0.0000000000000E+00
(PID.TID 0000.0001) %MON g__extforcing_g_fu_sd        =   0.0000000000000E+00
(PID.TID 0000.0001) %MON g__extforcing_g_fu_del2      =   0.0000000000000E+00
(PID.TID 0000.0001) %MON g__extforcing_g_fv_max       =   0.0000000000000E+00
(PID.TID 0000.0001) %MON g__extforcing_g_fv_min       =   0.0000000000000E+00
(PID.TID 0000.0001) %MON g__extforcing_g_fv_mean      =   0.0000000000000E+00
(PID.TID 0000.0001) %MON g__extforcing_g_fv_sd        =   0.0000000000000E+00
(PID.TID 0000.0001) %MON g__extforcing_g_fv_del2      =   0.0000000000000E+00
(PID.TID 0000.0001) %MON g__g_vcfl_g_uvel_max         =   3.7726449079338E-05
(PID.TID 0000.0001) %MON g__g_vcfl_g_vvel_max         =   2.4512071967212E-05
(PID.TID 0000.0001) %MON g__g_vcfl_g_wvel_max         =   4.8131196986492E-05
(PID.TID 0000.0001) %MON g__g_vcfl_g_W_hf_max         =   1.1551487276758E-04
(PID.TID 0000.0001) // =======================================================
(PID.TID 0000.0001) // End MONITOR dynamic field statistics
(PID.TID 0000.0001) // =======================================================
 cg2d: Sum(rhs),rhsMax =   9.86226030718794E-12  1.12483550416282E-02
 cg2d: Sum(rhs),rhsMax =   2.24256724301597E-12  8.66161341629482E+00
(PID.TID 0000.0001) // =======================================================
(PID.TID 0000.0001) // Begin MONITOR dynamic field statistics
(PID.TID 0000.0001) // =======================================================
(PID.TID 0000.0001) %MON g__time_tsnumber             =                   116
(PID.TID 0000.0001) %MON g__time_secondsf             =   5.0112000000000E+06
(PID.TID 0000.0001) %MON g__dynstat_g_eta_max         =   2.7781997120821E-03
(PID.TID 0000.0001) %MON g__dynstat_g_eta_min         =  -3.5634943083336E-05
(PID.TID 0000.0001) %MON g__dynstat_g_eta_mean        =  -6.8952908710432E-18
(PID.TID 0000.0001) %MON g__dynstat_g_eta_sd          =   3.6705646242266E-05
(PID.TID 0000.0001) %MON g__dynstat_g_eta_del2        =   1.7763610239985E-06
(PID.TID 0000.0001) %MON g__dynstat_g_uvel_max        =   2.1960677362743E-05
(PID.TID 0000.0001) %MON g__dynstat_g_uvel_min        =  -1.2024114269917E-04
(PID.TID 0000.0001) %MON g__dynstat_g_uvel_mean       =   9.1973928268100E-09
(PID.TID 0000.0001) %MON g__dynstat_g_uvel_sd         =   3.4710977431829E-07
(PID.TID 0000.0001) %MON g__dynstat_g_uvel_del2       =   4.6248803430198E-08
(PID.TID 0000.0001) %MON g__dynstat_g_vvel_max        =   2.5458334078887E-04
(PID.TID 0000.0001) %MON g__dynstat_g_vvel_min        =  -1.7254139110329E-04
(PID.TID 0000.0001) %MON g__dynstat_g_vvel_mean       =  -2.6894789448256E-08
(PID.TID 0000.0001) %MON g__dynstat_g_vvel_sd         =   6.1170151806901E-07
(PID.TID 0000.0001) %MON g__dynstat_g_vvel_del2       =   5.5178245622089E-08
(PID.TID 0000.0001) %MON g__dynstat_g_wvel_max        =   8.2728416609368E-08
(PID.TID 0000.0001) %MON g__dynstat_g_wvel_min        =  -4.5551691712762E-08
(PID.TID 0000.0001) %MON g__dynstat_g_wvel_mean       =   1.4216580314920E-27
(PID.TID 0000.0001) %MON g__dynstat_g_wvel_sd         =   4.2091295045628E-10
(PID.TID 0000.0001) %MON g__dynstat_g_wvel_del2       =   8.5343276545280E-11
(PID.TID 0000.0001) %MON g__dynstat_g_theta_max       =   3.6944082154188E-01
(PID.TID 0000.0001) %MON g__dynstat_g_theta_min       =  -6.1297651816739E-04
(PID.TID 0000.0001) %MON g__dynstat_g_theta_mean      =   2.5881110479091E-06
(PID.TID 0000.0001) %MON g__dynstat_g_theta_sd        =   6.6581544857724E-04
(PID.TID 0000.0001) %MON g__dynstat_g_theta_del2      =   2.4499833874563E-05
(PID.TID 0000.0001) %MON g__dynstat_g_salt_max        =   8.5027521238582E-03
(PID.TID 0000.0001) %MON g__dynstat_g_salt_min        =  -1.4175891844835E-02
(PID.TID 0000.0001) %MON g__dynstat_g_salt_mean       =   4.5058729606559E-09
(PID.TID 0000.0001) %MON g__dynstat_g_salt_sd         =   2.5007940585242E-05
(PID.TID 0000.0001) %MON g__dynstat_g_salt_del2       =   1.5695428039817E-06
(PID.TID 0000.0001) %MON g__dynstat_g_sst_max         =   3.6944082154188E-01
(PID.TID 0000.0001) %MON g__dynstat_g_sst_min         =  -9.0335637537309E-05
(PID.TID 0000.0001) %MON g__dynstat_g_sst_mean        =   9.2215384509564E-05
(PID.TID 0000.0001) %MON g__dynstat_g_sst_sd          =   4.9211711427145E-03
(PID.TID 0000.0001) %MON g__dynstat_g_sst_del2        =   1.9963436874291E-04
(PID.TID 0000.0001) %MON g__dynstat_g_sss_max         =   8.5027521238582E-03
(PID.TID 0000.0001) %MON g__dynstat_g_sss_min         =  -1.4175891844835E-02
(PID.TID 0000.0001) %MON g__dynstat_g_sss_mean        =   1.8862318466002E-07
(PID.TID 0000.0001) %MON g__dynstat_g_sss_sd          =   2.1574954597535E-04
(PID.TID 0000.0001) %MON g__dynstat_g_sss_del2        =   1.6713098060663E-05
(PID.TID 0000.0001) %MON g__extforcing_g_qnet_max     =   0.0000000000000E+00
(PID.TID 0000.0001) %MON g__extforcing_g_qnet_min     =   0.0000000000000E+00
(PID.TID 0000.0001) %MON g__extforcing_g_qnet_mean    =   0.0000000000000E+00
(PID.TID 0000.0001) %MON g__extforcing_g_qnet_sd      =   0.0000000000000E+00
(PID.TID 0000.0001) %MON g__extforcing_g_qnet_del2    =   0.0000000000000E+00
(PID.TID 0000.0001) %MON g__extforcing_g_empmr_max    =   0.0000000000000E+00
(PID.TID 0000.0001) %MON g__extforcing_g_empmr_min    =   0.0000000000000E+00
(PID.TID 0000.0001) %MON g__extforcing_g_empmr_mean   =   0.0000000000000E+00
(PID.TID 0000.0001) %MON g__extforcing_g_empmr_sd     =   0.0000000000000E+00
(PID.TID 0000.0001) %MON g__extforcing_g_empmr_del2   =   0.0000000000000E+00
(PID.TID 0000.0001) %MON g__extforcing_g_fu_max       =   0.0000000000000E+00
(PID.TID 0000.0001) %MON g__extforcing_g_fu_min       =   0.0000000000000E+00
(PID.TID 0000.0001) %MON g__extforcing_g_fu_mean      =   0.0000000000000E+00
(PID.TID 0000.0001) %MON g__extforcing_g_fu_sd        =   0.0000000000000E+00
(PID.TID 0000.0001) %MON g__extforcing_g_fu_del2      =   0.0000000000000E+00
(PID.TID 0000.0001) %MON g__extforcing_g_fv_max       =   0.0000000000000E+00
(PID.TID 0000.0001) %MON g__extforcing_g_fv_min       =   0.0000000000000E+00
(PID.TID 0000.0001) %MON g__extforcing_g_fv_mean      =   0.0000000000000E+00
(PID.TID 0000.0001) %MON g__extforcing_g_fv_sd        =   0.0000000000000E+00
(PID.TID 0000.0001) %MON g__extforcing_g_fv_del2      =   0.0000000000000E+00
(PID.TID 0000.0001) %MON g__g_vcfl_g_uvel_max         =   3.4831846510580E-05
(PID.TID 0000.0001) %MON g__g_vcfl_g_vvel_max         =   2.4730730044689E-05
(PID.TID 0000.0001) %MON g__g_vcfl_g_wvel_max         =   4.9008948304058E-05
(PID.TID 0000.0001) %MON g__g_vcfl_g_W_hf_max         =   1.1762147592974E-04
(PID.TID 0000.0001) // =======================================================
(PID.TID 0000.0001) // End MONITOR dynamic field statistics
(PID.TID 0000.0001) // =======================================================
 cg2d: Sum(rhs),rhsMax =   9.76138110907231E-12  1.11192074583715E-02
 cg2d: Sum(rhs),rhsMax =   1.92805493792747E-12  8.59122132821659E+00
(PID.TID 0000.0001) // =======================================================
(PID.TID 0000.0001) // Begin MONITOR dynamic field statistics
(PID.TID 0000.0001) // =======================================================
(PID.TID 0000.0001) %MON g__time_tsnumber             =                   117
(PID.TID 0000.0001) %MON g__time_secondsf             =   5.0544000000000E+06
(PID.TID 0000.0001) %MON g__dynstat_g_eta_max         =   2.7483294275707E-03
(PID.TID 0000.0001) %MON g__dynstat_g_eta_min         =  -3.4564971450684E-05
(PID.TID 0000.0001) %MON g__dynstat_g_eta_mean        =  -6.6959627534647E-18
(PID.TID 0000.0001) %MON g__dynstat_g_eta_sd          =   3.6351433955854E-05
(PID.TID 0000.0001) %MON g__dynstat_g_eta_del2        =   1.7575490154267E-06
(PID.TID 0000.0001) %MON g__dynstat_g_uvel_max        =   2.4357529934752E-05
(PID.TID 0000.0001) %MON g__dynstat_g_uvel_min        =  -1.1832416045452E-04
(PID.TID 0000.0001) %MON g__dynstat_g_uvel_mean       =   8.3957772114258E-09
(PID.TID 0000.0001) %MON g__dynstat_g_uvel_sd         =   3.3663047177082E-07
(PID.TID 0000.0001) %MON g__dynstat_g_uvel_del2       =   4.5961887055052E-08
(PID.TID 0000.0001) %MON g__dynstat_g_vvel_max        =   2.5726709841715E-04
(PID.TID 0000.0001) %MON g__dynstat_g_vvel_min        =  -1.6720882826819E-04
(PID.TID 0000.0001) %MON g__dynstat_g_vvel_mean       =  -2.6353448163187E-08
(PID.TID 0000.0001) %MON g__dynstat_g_vvel_sd         =   6.1062155965888E-07
(PID.TID 0000.0001) %MON g__dynstat_g_vvel_del2       =   5.5010873581942E-08
(PID.TID 0000.0001) %MON g__dynstat_g_wvel_max        =   8.4061761115992E-08
(PID.TID 0000.0001) %MON g__dynstat_g_wvel_min        =  -4.3799928494846E-08
(PID.TID 0000.0001) %MON g__dynstat_g_wvel_mean       =  -1.2347635487700E-27
(PID.TID 0000.0001) %MON g__dynstat_g_wvel_sd         =   4.1777969604091E-10
(PID.TID 0000.0001) %MON g__dynstat_g_wvel_del2       =   8.4785402526306E-11
(PID.TID 0000.0001) %MON g__dynstat_g_theta_max       =   3.6483320041785E-01
(PID.TID 0000.0001) %MON g__dynstat_g_theta_min       =  -6.1902876178457E-04
(PID.TID 0000.0001) %MON g__dynstat_g_theta_mean      =   2.5744825931121E-06
(PID.TID 0000.0001) %MON g__dynstat_g_theta_sd        =   6.5973510366480E-04
(PID.TID 0000.0001) %MON g__dynstat_g_theta_del2      =   2.4238239758627E-05
(PID.TID 0000.0001) %MON g__dynstat_g_salt_max        =   8.4997678148339E-03
(PID.TID 0000.0001) %MON g__dynstat_g_salt_min        =  -1.4122340554050E-02
(PID.TID 0000.0001) %MON g__dynstat_g_salt_mean       =   4.3357316760330E-09
(PID.TID 0000.0001) %MON g__dynstat_g_salt_sd         =   2.4927971502776E-05
(PID.TID 0000.0001) %MON g__dynstat_g_salt_del2       =   1.5669479076863E-06
(PID.TID 0000.0001) %MON g__dynstat_g_sst_max         =   3.6483320041785E-01
(PID.TID 0000.0001) %MON g__dynstat_g_sst_min         =  -9.0912875638775E-05
(PID.TID 0000.0001) %MON g__dynstat_g_sst_mean        =   9.1301791127348E-05
(PID.TID 0000.0001) %MON g__dynstat_g_sst_sd          =   4.8650231501501E-03
(PID.TID 0000.0001) %MON g__dynstat_g_sst_del2        =   1.9685512069519E-04
(PID.TID 0000.0001) %MON g__dynstat_g_sss_max         =   8.4997678148339E-03
(PID.TID 0000.0001) %MON g__dynstat_g_sss_min         =  -1.4122340554050E-02
(PID.TID 0000.0001) %MON g__dynstat_g_sss_mean        =   1.8833141233495E-07
(PID.TID 0000.0001) %MON g__dynstat_g_sss_sd          =   2.1502770069619E-04
(PID.TID 0000.0001) %MON g__dynstat_g_sss_del2        =   1.6660542523855E-05
(PID.TID 0000.0001) %MON g__extforcing_g_qnet_max     =   0.0000000000000E+00
(PID.TID 0000.0001) %MON g__extforcing_g_qnet_min     =   0.0000000000000E+00
(PID.TID 0000.0001) %MON g__extforcing_g_qnet_mean    =   0.0000000000000E+00
(PID.TID 0000.0001) %MON g__extforcing_g_qnet_sd      =   0.0000000000000E+00
(PID.TID 0000.0001) %MON g__extforcing_g_qnet_del2    =   0.0000000000000E+00
(PID.TID 0000.0001) %MON g__extforcing_g_empmr_max    =   0.0000000000000E+00
(PID.TID 0000.0001) %MON g__extforcing_g_empmr_min    =   0.0000000000000E+00
(PID.TID 0000.0001) %MON g__extforcing_g_empmr_mean   =   0.0000000000000E+00
(PID.TID 0000.0001) %MON g__extforcing_g_empmr_sd     =   0.0000000000000E+00
(PID.TID 0000.0001) %MON g__extforcing_g_empmr_del2   =   0.0000000000000E+00
(PID.TID 0000.0001) %MON g__extforcing_g_fu_max       =   0.0000000000000E+00
(PID.TID 0000.0001) %MON g__extforcing_g_fu_min       =   0.0000000000000E+00
(PID.TID 0000.0001) %MON g__extforcing_g_fu_mean      =   0.0000000000000E+00
(PID.TID 0000.0001) %MON g__extforcing_g_fu_sd        =   0.0000000000000E+00
(PID.TID 0000.0001) %MON g__extforcing_g_fu_del2      =   0.0000000000000E+00
(PID.TID 0000.0001) %MON g__extforcing_g_fv_max       =   0.0000000000000E+00
(PID.TID 0000.0001) %MON g__extforcing_g_fv_min       =   0.0000000000000E+00
(PID.TID 0000.0001) %MON g__extforcing_g_fv_mean      =   0.0000000000000E+00
(PID.TID 0000.0001) %MON g__extforcing_g_fv_sd        =   0.0000000000000E+00
(PID.TID 0000.0001) %MON g__extforcing_g_fv_del2      =   0.0000000000000E+00
(PID.TID 0000.0001) %MON g__g_vcfl_g_uvel_max         =   3.3606919261247E-05
(PID.TID 0000.0001) %MON g__g_vcfl_g_vvel_max         =   2.4991435577127E-05
(PID.TID 0000.0001) %MON g__g_vcfl_g_wvel_max         =   4.9839981794457E-05
(PID.TID 0000.0001) %MON g__g_vcfl_g_W_hf_max         =   1.1961595630670E-04
(PID.TID 0000.0001) // =======================================================
(PID.TID 0000.0001) // End MONITOR dynamic field statistics
(PID.TID 0000.0001) // =======================================================
 cg2d: Sum(rhs),rhsMax =   9.59356736846689E-12  1.09855835912835E-02
 cg2d: Sum(rhs),rhsMax =   2.26828278382385E-12  8.77527684111764E+00
(PID.TID 0000.0001) // =======================================================
(PID.TID 0000.0001) // Begin MONITOR dynamic field statistics
(PID.TID 0000.0001) // =======================================================
(PID.TID 0000.0001) %MON g__time_tsnumber             =                   118
(PID.TID 0000.0001) %MON g__time_secondsf             =   5.0976000000000E+06
(PID.TID 0000.0001) %MON g__dynstat_g_eta_max         =   2.7174394148030E-03
(PID.TID 0000.0001) %MON g__dynstat_g_eta_min         =  -3.3375560493173E-05
(PID.TID 0000.0001) %MON g__dynstat_g_eta_mean        =  -6.4689193200458E-18
(PID.TID 0000.0001) %MON g__dynstat_g_eta_sd          =   3.5984906686333E-05
(PID.TID 0000.0001) %MON g__dynstat_g_eta_del2        =   1.7370015905501E-06
(PID.TID 0000.0001) %MON g__dynstat_g_uvel_max        =   2.6107982932299E-05
(PID.TID 0000.0001) %MON g__dynstat_g_uvel_min        =  -1.1662603463267E-04
(PID.TID 0000.0001) %MON g__dynstat_g_uvel_mean       =   7.8091411214706E-09
(PID.TID 0000.0001) %MON g__dynstat_g_uvel_sd         =   3.2850305474274E-07
(PID.TID 0000.0001) %MON g__dynstat_g_uvel_del2       =   4.5745259847648E-08
(PID.TID 0000.0001) %MON g__dynstat_g_vvel_max        =   2.6022544613333E-04
(PID.TID 0000.0001) %MON g__dynstat_g_vvel_min        =  -1.6155489733246E-04
(PID.TID 0000.0001) %MON g__dynstat_g_vvel_mean       =  -2.5556530055473E-08
(PID.TID 0000.0001) %MON g__dynstat_g_vvel_sd         =   6.1012573476445E-07
(PID.TID 0000.0001) %MON g__dynstat_g_vvel_del2       =   5.4872474649449E-08
(PID.TID 0000.0001) %MON g__dynstat_g_wvel_max        =   8.5397796244699E-08
(PID.TID 0000.0001) %MON g__dynstat_g_wvel_min        =  -4.2242833559844E-08
(PID.TID 0000.0001) %MON g__dynstat_g_wvel_mean       =  -2.4469527639528E-27
(PID.TID 0000.0001) %MON g__dynstat_g_wvel_sd         =   4.1535354929584E-10
(PID.TID 0000.0001) %MON g__dynstat_g_wvel_del2       =   8.4341737484184E-11
(PID.TID 0000.0001) %MON g__dynstat_g_theta_max       =   3.6017079864430E-01
(PID.TID 0000.0001) %MON g__dynstat_g_theta_min       =  -6.2495276015610E-04
(PID.TID 0000.0001) %MON g__dynstat_g_theta_mean      =   2.5603180481644E-06
(PID.TID 0000.0001) %MON g__dynstat_g_theta_sd        =   6.5352302139110E-04
(PID.TID 0000.0001) %MON g__dynstat_g_theta_del2      =   2.3972288696099E-05
(PID.TID 0000.0001) %MON g__dynstat_g_salt_max        =   8.4939050013955E-03
(PID.TID 0000.0001) %MON g__dynstat_g_salt_min        =  -1.4061978888302E-02
(PID.TID 0000.0001) %MON g__dynstat_g_salt_mean       =   4.1836117328351E-09
(PID.TID 0000.0001) %MON g__dynstat_g_salt_sd         =   2.4837543160376E-05
(PID.TID 0000.0001) %MON g__dynstat_g_salt_del2       =   1.5641351456026E-06
(PID.TID 0000.0001) %MON g__dynstat_g_sst_max         =   3.6017079864430E-01
(PID.TID 0000.0001) %MON g__dynstat_g_sst_min         =  -9.1539962905834E-05
(PID.TID 0000.0001) %MON g__dynstat_g_sst_mean        =   9.0369310439705E-05
(PID.TID 0000.0001) %MON g__dynstat_g_sst_sd          =   4.8081773080075E-03
(PID.TID 0000.0001) %MON g__dynstat_g_sst_del2        =   1.9405274335426E-04
(PID.TID 0000.0001) %MON g__dynstat_g_sss_max         =   8.4939050013955E-03
(PID.TID 0000.0001) %MON g__dynstat_g_sss_min         =  -1.4061978888302E-02
(PID.TID 0000.0001) %MON g__dynstat_g_sss_mean        =   1.8812637802811E-07
(PID.TID 0000.0001) %MON g__dynstat_g_sss_sd          =   2.1421024891095E-04
(PID.TID 0000.0001) %MON g__dynstat_g_sss_del2        =   1.6602334821136E-05
(PID.TID 0000.0001) %MON g__extforcing_g_qnet_max     =   0.0000000000000E+00
(PID.TID 0000.0001) %MON g__extforcing_g_qnet_min     =   0.0000000000000E+00
(PID.TID 0000.0001) %MON g__extforcing_g_qnet_mean    =   0.0000000000000E+00
(PID.TID 0000.0001) %MON g__extforcing_g_qnet_sd      =   0.0000000000000E+00
(PID.TID 0000.0001) %MON g__extforcing_g_qnet_del2    =   0.0000000000000E+00
(PID.TID 0000.0001) %MON g__extforcing_g_empmr_max    =   0.0000000000000E+00
(PID.TID 0000.0001) %MON g__extforcing_g_empmr_min    =   0.0000000000000E+00
(PID.TID 0000.0001) %MON g__extforcing_g_empmr_mean   =   0.0000000000000E+00
(PID.TID 0000.0001) %MON g__extforcing_g_empmr_sd     =   0.0000000000000E+00
(PID.TID 0000.0001) %MON g__extforcing_g_empmr_del2   =   0.0000000000000E+00
(PID.TID 0000.0001) %MON g__extforcing_g_fu_max       =   0.0000000000000E+00
(PID.TID 0000.0001) %MON g__extforcing_g_fu_min       =   0.0000000000000E+00
(PID.TID 0000.0001) %MON g__extforcing_g_fu_mean      =   0.0000000000000E+00
(PID.TID 0000.0001) %MON g__extforcing_g_fu_sd        =   0.0000000000000E+00
(PID.TID 0000.0001) %MON g__extforcing_g_fu_del2      =   0.0000000000000E+00
(PID.TID 0000.0001) %MON g__extforcing_g_fv_max       =   0.0000000000000E+00
(PID.TID 0000.0001) %MON g__extforcing_g_fv_min       =   0.0000000000000E+00
(PID.TID 0000.0001) %MON g__extforcing_g_fv_mean      =   0.0000000000000E+00
(PID.TID 0000.0001) %MON g__extforcing_g_fv_sd        =   0.0000000000000E+00
(PID.TID 0000.0001) %MON g__extforcing_g_fv_del2      =   0.0000000000000E+00
(PID.TID 0000.0001) %MON g__g_vcfl_g_uvel_max         =   3.3124610515753E-05
(PID.TID 0000.0001) %MON g__g_vcfl_g_vvel_max         =   2.5278815334657E-05
(PID.TID 0000.0001) %MON g__g_vcfl_g_wvel_max         =   5.0621418963719E-05
(PID.TID 0000.0001) %MON g__g_vcfl_g_W_hf_max         =   1.2149140551293E-04
(PID.TID 0000.0001) // =======================================================
(PID.TID 0000.0001) // End MONITOR dynamic field statistics
(PID.TID 0000.0001) // =======================================================
 cg2d: Sum(rhs),rhsMax =   9.38441857588953E-12  1.08468333506421E-02
 cg2d: Sum(rhs),rhsMax =   2.60698407306137E-12  9.00166235036073E+00
(PID.TID 0000.0001) // =======================================================
(PID.TID 0000.0001) // Begin MONITOR dynamic field statistics
(PID.TID 0000.0001) // =======================================================
(PID.TID 0000.0001) %MON g__time_tsnumber             =                   119
(PID.TID 0000.0001) %MON g__time_secondsf             =   5.1408000000000E+06
(PID.TID 0000.0001) %MON g__dynstat_g_eta_max         =   2.6853599975138E-03
(PID.TID 0000.0001) %MON g__dynstat_g_eta_min         =  -3.2101636520077E-05
(PID.TID 0000.0001) %MON g__dynstat_g_eta_mean        =  -6.2978523313949E-18
(PID.TID 0000.0001) %MON g__dynstat_g_eta_sd          =   3.5603904843982E-05
(PID.TID 0000.0001) %MON g__dynstat_g_eta_del2        =   1.7155695470660E-06
(PID.TID 0000.0001) %MON g__dynstat_g_uvel_max        =   2.7172811161876E-05
(PID.TID 0000.0001) %MON g__dynstat_g_uvel_min        =  -1.1514941352386E-04
(PID.TID 0000.0001) %MON g__dynstat_g_uvel_mean       =   7.4454458259272E-09
(PID.TID 0000.0001) %MON g__dynstat_g_uvel_sd         =   3.2252931436636E-07
(PID.TID 0000.0001) %MON g__dynstat_g_uvel_del2       =   4.5581156062012E-08
(PID.TID 0000.0001) %MON g__dynstat_g_vvel_max        =   2.6328924524150E-04
(PID.TID 0000.0001) %MON g__dynstat_g_vvel_min        =  -1.5567037556946E-04
(PID.TID 0000.0001) %MON g__dynstat_g_vvel_mean       =  -2.4509985439891E-08
(PID.TID 0000.0001) %MON g__dynstat_g_vvel_sd         =   6.1017679227254E-07
(PID.TID 0000.0001) %MON g__dynstat_g_vvel_del2       =   5.4768336555079E-08
(PID.TID 0000.0001) %MON g__dynstat_g_wvel_max        =   8.6731173828029E-08
(PID.TID 0000.0001) %MON g__dynstat_g_wvel_min        =  -4.0853849744801E-08
(PID.TID 0000.0001) %MON g__dynstat_g_wvel_mean       =   2.7906426179472E-27
(PID.TID 0000.0001) %MON g__dynstat_g_wvel_sd         =   4.1364071539863E-10
(PID.TID 0000.0001) %MON g__dynstat_g_wvel_del2       =   8.4021278785689E-11
(PID.TID 0000.0001) %MON g__dynstat_g_theta_max       =   3.5544944618694E-01
(PID.TID 0000.0001) %MON g__dynstat_g_theta_min       =  -6.3075823617592E-04
(PID.TID 0000.0001) %MON g__dynstat_g_theta_mean      =   2.5455288479976E-06
(PID.TID 0000.0001) %MON g__dynstat_g_theta_sd        =   6.4716683692561E-04
(PID.TID 0000.0001) %MON g__dynstat_g_theta_del2      =   2.3701590999899E-05
(PID.TID 0000.0001) %MON g__dynstat_g_salt_max        =   8.4849349666314E-03
(PID.TID 0000.0001) %MON g__dynstat_g_salt_min        =  -1.3994366696095E-02
(PID.TID 0000.0001) %MON g__dynstat_g_salt_mean       =   4.0536209900470E-09
(PID.TID 0000.0001) %MON g__dynstat_g_salt_sd         =   2.4735976910983E-05
(PID.TID 0000.0001) %MON g__dynstat_g_salt_del2       =   1.5610784180257E-06
(PID.TID 0000.0001) %MON g__dynstat_g_sst_max         =   3.5544944618694E-01
(PID.TID 0000.0001) %MON g__dynstat_g_sst_min         =  -9.2214844810958E-05
(PID.TID 0000.0001) %MON g__dynstat_g_sst_mean        =   8.9415932861322E-05
(PID.TID 0000.0001) %MON g__dynstat_g_sst_sd          =   4.7505813553876E-03
(PID.TID 0000.0001) %MON g__dynstat_g_sst_del2        =   1.9122471870853E-04
(PID.TID 0000.0001) %MON g__dynstat_g_sss_max         =   8.4849349666314E-03
(PID.TID 0000.0001) %MON g__dynstat_g_sss_min         =  -1.3994366696095E-02
(PID.TID 0000.0001) %MON g__dynstat_g_sss_mean        =   1.8791532612633E-07
(PID.TID 0000.0001) %MON g__dynstat_g_sss_sd          =   2.1329062233240E-04
(PID.TID 0000.0001) %MON g__dynstat_g_sss_del2        =   1.6537757066957E-05
(PID.TID 0000.0001) %MON g__extforcing_g_qnet_max     =   0.0000000000000E+00
(PID.TID 0000.0001) %MON g__extforcing_g_qnet_min     =   0.0000000000000E+00
(PID.TID 0000.0001) %MON g__extforcing_g_qnet_mean    =   0.0000000000000E+00
(PID.TID 0000.0001) %MON g__extforcing_g_qnet_sd      =   0.0000000000000E+00
(PID.TID 0000.0001) %MON g__extforcing_g_qnet_del2    =   0.0000000000000E+00
(PID.TID 0000.0001) %MON g__extforcing_g_empmr_max    =   0.0000000000000E+00
(PID.TID 0000.0001) %MON g__extforcing_g_empmr_min    =   0.0000000000000E+00
(PID.TID 0000.0001) %MON g__extforcing_g_empmr_mean   =   0.0000000000000E+00
(PID.TID 0000.0001) %MON g__extforcing_g_empmr_sd     =   0.0000000000000E+00
(PID.TID 0000.0001) %MON g__extforcing_g_empmr_del2   =   0.0000000000000E+00
(PID.TID 0000.0001) %MON g__extforcing_g_fu_max       =   0.0000000000000E+00
(PID.TID 0000.0001) %MON g__extforcing_g_fu_min       =   0.0000000000000E+00
(PID.TID 0000.0001) %MON g__extforcing_g_fu_mean      =   0.0000000000000E+00
(PID.TID 0000.0001) %MON g__extforcing_g_fu_sd        =   0.0000000000000E+00
(PID.TID 0000.0001) %MON g__extforcing_g_fu_del2      =   0.0000000000000E+00
(PID.TID 0000.0001) %MON g__extforcing_g_fv_max       =   0.0000000000000E+00
(PID.TID 0000.0001) %MON g__extforcing_g_fv_min       =   0.0000000000000E+00
(PID.TID 0000.0001) %MON g__extforcing_g_fv_mean      =   0.0000000000000E+00
(PID.TID 0000.0001) %MON g__extforcing_g_fv_sd        =   0.0000000000000E+00
(PID.TID 0000.0001) %MON g__extforcing_g_fv_del2      =   0.0000000000000E+00
(PID.TID 0000.0001) %MON g__g_vcfl_g_uvel_max         =   3.2705214458408E-05
(PID.TID 0000.0001) %MON g__g_vcfl_g_vvel_max         =   2.5576438849301E-05
(PID.TID 0000.0001) %MON g__g_vcfl_g_wvel_max         =   5.1348885706813E-05
(PID.TID 0000.0001) %MON g__g_vcfl_g_W_hf_max         =   1.2323732569635E-04
(PID.TID 0000.0001) // =======================================================
(PID.TID 0000.0001) // End MONITOR dynamic field statistics
(PID.TID 0000.0001) // =======================================================
 cg2d: Sum(rhs),rhsMax =   9.25866990090759E-12  1.07026106832126E-02
 cg2d: Sum(rhs),rhsMax =   2.38375985617267E-12  9.15305707655143E+00
(PID.TID 0000.0001) // =======================================================
(PID.TID 0000.0001) // Begin MONITOR dynamic field statistics
(PID.TID 0000.0001) // =======================================================
(PID.TID 0000.0001) %MON g__time_tsnumber             =                   120
(PID.TID 0000.0001) %MON g__time_secondsf             =   5.1840000000000E+06
(PID.TID 0000.0001) %MON g__dynstat_g_eta_max         =   2.6519907376164E-03
(PID.TID 0000.0001) %MON g__dynstat_g_eta_min         =  -3.0779274988765E-05
(PID.TID 0000.0001) %MON g__dynstat_g_eta_mean        =  -6.1420141695609E-18
(PID.TID 0000.0001) %MON g__dynstat_g_eta_sd          =   3.5207098035677E-05
(PID.TID 0000.0001) %MON g__dynstat_g_eta_del2        =   1.6932599227901E-06
(PID.TID 0000.0001) %MON g__dynstat_g_uvel_max        =   3.1984834917712E-05
(PID.TID 0000.0001) %MON g__dynstat_g_uvel_min        =  -1.1389015953570E-04
(PID.TID 0000.0001) %MON g__dynstat_g_uvel_mean       =   7.3010202702458E-09
(PID.TID 0000.0001) %MON g__dynstat_g_uvel_sd         =   3.1831425670843E-07
(PID.TID 0000.0001) %MON g__dynstat_g_uvel_del2       =   4.5389144830935E-08
(PID.TID 0000.0001) %MON g__dynstat_g_vvel_max        =   2.6628368267727E-04
(PID.TID 0000.0001) %MON g__dynstat_g_vvel_min        =  -1.4964819403780E-04
(PID.TID 0000.0001) %MON g__dynstat_g_vvel_mean       =  -2.3229069877505E-08
(PID.TID 0000.0001) %MON g__dynstat_g_vvel_sd         =   6.1067213908196E-07
(PID.TID 0000.0001) %MON g__dynstat_g_vvel_del2       =   5.4685270474303E-08
(PID.TID 0000.0001) %MON g__dynstat_g_wvel_max        =   8.8049653017311E-08
(PID.TID 0000.0001) %MON g__dynstat_g_wvel_min        =  -3.9607486239246E-08
(PID.TID 0000.0001) %MON g__dynstat_g_wvel_mean       =   6.0985699652260E-29
(PID.TID 0000.0001) %MON g__dynstat_g_wvel_sd         =   4.1258732695250E-10
(PID.TID 0000.0001) %MON g__dynstat_g_wvel_del2       =   8.3844569579547E-11
(PID.TID 0000.0001) %MON g__dynstat_g_theta_max       =   3.5066990481357E-01
(PID.TID 0000.0001) %MON g__dynstat_g_theta_min       =  -6.3645487323775E-04
(PID.TID 0000.0001) %MON g__dynstat_g_theta_mean      =   2.5300614237008E-06
(PID.TID 0000.0001) %MON g__dynstat_g_theta_sd        =   6.4066471517373E-04
(PID.TID 0000.0001) %MON g__dynstat_g_theta_del2      =   2.3425833381848E-05
(PID.TID 0000.0001) %MON g__dynstat_g_salt_max        =   8.4727669279573E-03
(PID.TID 0000.0001) %MON g__dynstat_g_salt_min        =  -1.3919406716477E-02
(PID.TID 0000.0001) %MON g__dynstat_g_salt_mean       =   3.9485038789239E-09
(PID.TID 0000.0001) %MON g__dynstat_g_salt_sd         =   2.4623141832015E-05
(PID.TID 0000.0001) %MON g__dynstat_g_salt_del2       =   1.5577859002023E-06
(PID.TID 0000.0001) %MON g__dynstat_g_sst_max         =   3.5066990481357E-01
(PID.TID 0000.0001) %MON g__dynstat_g_sst_min         =  -9.2934334696781E-05
(PID.TID 0000.0001) %MON g__dynstat_g_sst_mean        =   8.8442171420709E-05
(PID.TID 0000.0001) %MON g__dynstat_g_sst_sd          =   4.6922455851786E-03
(PID.TID 0000.0001) %MON g__dynstat_g_sst_del2        =   1.8837028865672E-04
(PID.TID 0000.0001) %MON g__dynstat_g_sss_max         =   8.4727669279573E-03
(PID.TID 0000.0001) %MON g__dynstat_g_sss_min         =  -1.3919406716477E-02
(PID.TID 0000.0001) %MON g__dynstat_g_sss_mean        =   1.8780909394819E-07
(PID.TID 0000.0001) %MON g__dynstat_g_sss_sd          =   2.1226717348943E-04
(PID.TID 0000.0001) %MON g__dynstat_g_sss_del2        =   1.6466682205434E-05
(PID.TID 0000.0001) %MON g__extforcing_g_qnet_max     =   0.0000000000000E+00
(PID.TID 0000.0001) %MON g__extforcing_g_qnet_min     =   0.0000000000000E+00
(PID.TID 0000.0001) %MON g__extforcing_g_qnet_mean    =   0.0000000000000E+00
(PID.TID 0000.0001) %MON g__extforcing_g_qnet_sd      =   0.0000000000000E+00
(PID.TID 0000.0001) %MON g__extforcing_g_qnet_del2    =   0.0000000000000E+00
(PID.TID 0000.0001) %MON g__extforcing_g_empmr_max    =   0.0000000000000E+00
(PID.TID 0000.0001) %MON g__extforcing_g_empmr_min    =   0.0000000000000E+00
(PID.TID 0000.0001) %MON g__extforcing_g_empmr_mean   =   0.0000000000000E+00
(PID.TID 0000.0001) %MON g__extforcing_g_empmr_sd     =   0.0000000000000E+00
(PID.TID 0000.0001) %MON g__extforcing_g_empmr_del2   =   0.0000000000000E+00
(PID.TID 0000.0001) %MON g__extforcing_g_fu_max       =   0.0000000000000E+00
(PID.TID 0000.0001) %MON g__extforcing_g_fu_min       =   0.0000000000000E+00
(PID.TID 0000.0001) %MON g__extforcing_g_fu_mean      =   0.0000000000000E+00
(PID.TID 0000.0001) %MON g__extforcing_g_fu_sd        =   0.0000000000000E+00
(PID.TID 0000.0001) %MON g__extforcing_g_fu_del2      =   0.0000000000000E+00
(PID.TID 0000.0001) %MON g__extforcing_g_fv_max       =   0.0000000000000E+00
(PID.TID 0000.0001) %MON g__extforcing_g_fv_min       =   0.0000000000000E+00
(PID.TID 0000.0001) %MON g__extforcing_g_fv_mean      =   0.0000000000000E+00
(PID.TID 0000.0001) %MON g__extforcing_g_fv_sd        =   0.0000000000000E+00
(PID.TID 0000.0001) %MON g__extforcing_g_fv_del2      =   0.0000000000000E+00
(PID.TID 0000.0001) %MON g__g_vcfl_g_uvel_max         =   3.2347555913044E-05
(PID.TID 0000.0001) %MON g__g_vcfl_g_vvel_max         =   2.5867324433685E-05
(PID.TID 0000.0001) %MON g__g_vcfl_g_wvel_max         =   5.2016033728927E-05
(PID.TID 0000.0001) %MON g__g_vcfl_g_W_hf_max         =   1.2483848094942E-04
(PID.TID 0000.0001) // =======================================================
(PID.TID 0000.0001) // End MONITOR dynamic field statistics
(PID.TID 0000.0001) // =======================================================
(PID.TID 0000.0001)  MDSREADFIELD: opening file: g_xx_theta.0000000000.001.001.data
(PID.TID 0000.0001)  MDSREADFIELD: opening file: xx_theta.0000000000.001.001.data
(PID.TID 0000.0001)  MDSREADFIELD: opening global file: bathymetry.bin
(PID.TID 0000.0001) // =======================================================
(PID.TID 0000.0001) // Field Model R_low (ini_masks_etc) at iteration          1
(PID.TID 0000.0001) // CMIN =         -5.200000000000000E+03
(PID.TID 0000.0001) // CMAX =         -1.200000000000000E+02
(PID.TID 0000.0001) // CINT =          1.881481481481482E+02
(PID.TID 0000.0001) // SYMBOLS (CMIN->CMAX): -abcdefghijklmnopqrstuvwxyz+
(PID.TID 0000.0001) //                  0.0: .
(PID.TID 0000.0001) // RANGE I (Lo:Hi:Step):(  -2:  93:   1)
(PID.TID 0000.0001) // RANGE J (Lo:Hi:Step):(  43:  -2:  -1)
(PID.TID 0000.0001) // RANGE K (Lo:Hi:Step):(   1:   1:   1)
(PID.TID 0000.0001) // =======================================================
(PID.TID 0000.0001) K =   1
(PID.TID 0000.0001) //                I=7       I=17      I=27      I=37      I=47      I=57      I=67      I=77      I=87
(PID.TID 0000.0001) // |--J--|210123456|890123456|890123456|890123456|890123456|890123456|890123456|890123456|890123456|890123
(PID.TID 0000.0001) //     43 ................................................................................................
(PID.TID 0000.0001) //     42 .............................................zyxxmgfeeefefgimnpwwwy..+zyy.....yyyyoiiihhz+......
(PID.TID 0000.0001) //     41 ................................................................................................
(PID.TID 0000.0001) //     40 +qlloqz+.++++zzz++++++..................................................................+++qlloq
(PID.TID 0000.0001) //     39 uslloorzzzzzzzzz+...++.....................................................yxxz........+zvuslloo
(PID.TID 0000.0001) //     38 smqpporzzzzzz+++...........................................................zxxy+......zyyvsmqppo
(PID.TID 0000.0001) //     37 smmmuz..................................................................++...zy+...yttyy.+smmmuz
(PID.TID 0000.0001) //     36 yutt+.........................................mm++....................+++++++znmm.yoowssvuyutt+.
(PID.TID 0000.0001) //     35 w++++.................................+zzz..rrmmkk+...+gghn...........+++....+nmiijlsoopuww++++.
(PID.TID 0000.0001) //     34 +.....................................+vvy.ggqyxv+y.ccdffhim..................+nihhikkihhm+.....
(PID.TID 0000.0001) //     33 w+.....................................uuz---h------aaabdefin+.................zqvddflifffw+....
(PID.TID 0000.0001) //     32 m+.....................................+t----h---------acdfgnn................+++gdffkofffm+....
(PID.TID 0000.0001) //     31 m......................................-----ad--------abddegil..............qbaafccdhqqgddm.....
(PID.TID 0000.0001) //     30 i.....................................f----b--b------------abd............zfbb--fbcdosjfddi.....
(PID.TID 0000.0001) //     29 i...................................tu----e---fjg----------abdf...........eaac--abfmijaadgi.....
(PID.TID 0000.0001) //     28 z.................................+xfl-------------------bdedefi.........qbaa---aemfbbaaejz.....
(PID.TID 0000.0001) //     27 .................xx..............+wfgfpf--------eallc---bbbccefgi...+++x.qb-----akfa---ah.......
(PID.TID 0000.0001) //     26 .................xnn...........+vd---dna------a--aicfna---aabdfghku.++xssuy-----bgca---ci.......
(PID.TID 0000.0001) //     25 .................iiik...oo+...+ivd---doaa-bc--ilglf--aa---aabcghhkll...ssum+xaaacjbaabdjk.......
(PID.TID 0000.0001) //     24 ...............xnheeft.kkk+...uii.aagdm----aa-----a-------bbbcdefjljjju.zummwwbbchba--abi.......
(PID.TID 0000.0001) //     23 ...............xgheefp.iikw...uuw..fihi----fed-----eaaa--bbbbcdfflkjiiiq....zykccefa--abd.......
(PID.TID 0000.0001) //     22 quss...........bbelffslffkk...zz.wqkeeqoheccdfa-----egabaabcdddegghliiiqq......xeeehheehccquss..
(PID.TID 0000.0001) //     21 cbbeir........nbbcdjhqdddiiz.....wqfeelgghmedea-----bibbcddddddefghklnqoo........ieeflhgcccbbeir
(PID.TID 0000.0001) //     20 cbbder.......ldcccdgkccccidd......z.vkkktqqhegg----aaacddddddddefghkiiijl.........nhfa--gfcbbder
(PID.TID 0000.0001) //     19 hcdaaf.......kddosggpaaaibbccx...+z+.....r+nlec---agaaabcddccddefikfgffff...........d---cjhcdaaf
(PID.TID 0000.0001) //     18 hd---d.......kglggvliaaaibbcaaeaiv++...qqzolhecccfdgkaabcdfccdeeikgfgffdd+..........d---djhd---d
(PID.TID 0000.0001) //     17 hc---c.......l.feewlfaaaoaa----aiv.....qqnllslmlofcdbaacceffffhhligfigeddj.........hd---ckhc---c
(PID.TID 0000.0001) //     16 gba--c......tn.ddgnlfdaaqa-----lv.......vnllvllnwv--accivomfffhilhgfffeddjf........re--aeigba--c
(PID.TID 0000.0001) //     15 fb--dpz....+ll.ccdfhmdddlc----av.........otsxoomv---abccddfihgijkhgfffeejfff......+fd---ckfb--dp
(PID.TID 0000.0001) //     14 fc--mcl....weeqbaafilkfend--eagy.........hhstofft----aacdheefijkmjhhjijiffff.....zlfdaaadlfc--mc
(PID.TID 0000.0001) //     13 hcclbbg....nccobaaiddgkffqrqeaal.........eeutqfft------aaceeffhijlkjhhigfffq....+jgfodccflhcclbb
(PID.TID 0000.0001) //     12 hhgaaacw+iiicclemhdddfliigfdcaabfaaaz....ccsurqpc--------abcifffikiiihhggff.....kbbbdfffglhhgaaa
(PID.TID 0000.0001) //     11 kgcaaacbbifccennhbbdefnihgfdccaaaa----..dcccnt.ncab-------aabcdfilhggjiggff....l---abcefjlkgcaaa
(PID.TID 0000.0001) //     10 kfcaaccbdaacfrllfbbdegkmmljhfdddba----d.dcccfx.nyrebaba----abcdgilhfeegijgi..+w--aa-abcfilkfcaac
(PID.TID 0000.0001) //      9 lffcdcccaaaoqsolfdeehikihhlllgfedcccccdmdcccf.vyfaaaaaaaa--abdehmjhfeeefglv.++w-----abcdfklffcdc
(PID.TID 0000.0001) //      8 liffjklcaafddffeeccvznkfffhhhlkjifgjkkfeeddfsyvcaaaaaaccdcccdfgjligedbbceg+.++xffn--cfddefliffjk
(PID.TID 0000.0001) //      7 hmqnnbbkkf--bmbaabbgtykfddeffeeddccdfhlffeelfbaaaaaacddeghgjgjlligeddaaabedfiiiiiisvkfkecchmqnnb
(PID.TID 0000.0001) //      6 cca-------------aabcelttdddedddddccccdfkkiiffbaaaabcdgimmkmefecaaabbbaaabbdfiiiiispmmregifcca---
(PID.TID 0000.0001) //      5 --------a-------aaccehhhiddeddddddcccdfiikomodddefffmlmigedccaaaaaaaababbbdfiijsqgeccccbaa------
(PID.TID 0000.0001) //      4 --ahebaabbbbbeihffgijiiiijpywnnpokkomkiiijmmmolkommmgffeeedccaaaaaabbcccefhmz..yjgeccccbaa--aheb
(PID.TID 0000.0001) //      3 gffhhrpjiiwyy............................yxotmjjjjgfeeeeeeddeffffheddeghjkyy..yqjgeddccdbbgffhhr
(PID.TID 0000.0001) //      2 .............................................zyxxmgfeeefefgimnpwwwy..+zyy.....yyyyoiiihhz+......
(PID.TID 0000.0001) //      1 ................................................................................................
(PID.TID 0000.0001) //      0 +qlloqz+.++++zzz++++++..................................................................+++qlloq
(PID.TID 0000.0001) //     -1 uslloorzzzzzzzzz+...++.....................................................yxxz........+zvuslloo
(PID.TID 0000.0001) //     -2 ................................................................................................
(PID.TID 0000.0001) // =======================================================
(PID.TID 0000.0001) // END OF FIELD                                          =
(PID.TID 0000.0001) // =======================================================
(PID.TID 0000.0001) 
(PID.TID 0000.0001) // =======================================================
(PID.TID 0000.0001) // Field Model Ro_surf (ini_masks_etc) at iteration          1
(PID.TID 0000.0001) // CMIN =          1.000000000000000E+32
(PID.TID 0000.0001) // CMAX =         -1.000000000000000E+32
(PID.TID 0000.0001) // CINT =          0.000000000000000E+00
(PID.TID 0000.0001) // SYMBOLS (CMIN->CMAX): -abcdefghijklmnopqrstuvwxyz+
(PID.TID 0000.0001) //                  0.0: .
(PID.TID 0000.0001) // RANGE I (Lo:Hi:Step):(  -2:  93:   1)
(PID.TID 0000.0001) // RANGE J (Lo:Hi:Step):(  43:  -2:  -1)
(PID.TID 0000.0001) // RANGE K (Lo:Hi:Step):(   1:   1:   1)
(PID.TID 0000.0001) // =======================================================
(PID.TID 0000.0001) // =======================================================
(PID.TID 0000.0001) // END OF FIELD                                          =
(PID.TID 0000.0001) // =======================================================
(PID.TID 0000.0001) 
(PID.TID 0000.0001) // =======================================================
(PID.TID 0000.0001) // Field hFacC at iteration          1
(PID.TID 0000.0001) // CMIN =          1.000000000000000E+00
(PID.TID 0000.0001) // CMAX =          1.000000000000000E+00
(PID.TID 0000.0001) // CINT =          0.000000000000000E+00
(PID.TID 0000.0001) // SYMBOLS (CMIN->CMAX): -abcdefghijklmnopqrstuvwxyz+
(PID.TID 0000.0001) //                  0.0: .
(PID.TID 0000.0001) // RANGE I (Lo:Hi:Step):(  -2:  93:   1)
(PID.TID 0000.0001) // RANGE J (Lo:Hi:Step):(  43:  -2:  -1)
(PID.TID 0000.0001) // RANGE K (Lo:Hi:Step):(   1:   1:   1)
(PID.TID 0000.0001) // =======================================================
(PID.TID 0000.0001) // =======================================================
(PID.TID 0000.0001) // END OF FIELD                                          =
(PID.TID 0000.0001) // =======================================================
(PID.TID 0000.0001) 
(PID.TID 0000.0001) // =======================================================
(PID.TID 0000.0001) // Field hFacW at iteration          1
(PID.TID 0000.0001) // CMIN =          1.000000000000000E+00
(PID.TID 0000.0001) // CMAX =          1.000000000000000E+00
(PID.TID 0000.0001) // CINT =          0.000000000000000E+00
(PID.TID 0000.0001) // SYMBOLS (CMIN->CMAX): -abcdefghijklmnopqrstuvwxyz+
(PID.TID 0000.0001) //                  0.0: .
(PID.TID 0000.0001) // RANGE I (Lo:Hi:Step):(  -2:  93:   1)
(PID.TID 0000.0001) // RANGE J (Lo:Hi:Step):(  43:  -2:  -1)
(PID.TID 0000.0001) // RANGE K (Lo:Hi:Step):(   1:   1:   1)
(PID.TID 0000.0001) // =======================================================
(PID.TID 0000.0001) // =======================================================
(PID.TID 0000.0001) // END OF FIELD                                          =
(PID.TID 0000.0001) // =======================================================
(PID.TID 0000.0001) 
(PID.TID 0000.0001) // =======================================================
(PID.TID 0000.0001) // Field hFacS at iteration          1
(PID.TID 0000.0001) // CMIN =          1.000000000000000E+00
(PID.TID 0000.0001) // CMAX =          1.000000000000000E+00
(PID.TID 0000.0001) // CINT =          0.000000000000000E+00
(PID.TID 0000.0001) // SYMBOLS (CMIN->CMAX): -abcdefghijklmnopqrstuvwxyz+
(PID.TID 0000.0001) //                  0.0: .
(PID.TID 0000.0001) // RANGE I (Lo:Hi:Step):(  -2:  93:   1)
(PID.TID 0000.0001) // RANGE J (Lo:Hi:Step):(  43:  -2:  -1)
(PID.TID 0000.0001) // RANGE K (Lo:Hi:Step):(   1:   1:   1)
(PID.TID 0000.0001) // =======================================================
(PID.TID 0000.0001) // =======================================================
(PID.TID 0000.0001) // END OF FIELD                                          =
(PID.TID 0000.0001) // =======================================================
(PID.TID 0000.0001) 
(PID.TID 0000.0001) %MON g__g_vcflfCori_max           =   1.4226580169407E-04
(PID.TID 0000.0001) %MON g__g_vcflfCori_min           =  -1.4226580169407E-04
(PID.TID 0000.0001) %MON g__g_vcflfCori_mean          =   7.5291817533716E-23
(PID.TID 0000.0001) %MON g__g_vcflfCori_sd            =   9.6335367303778E-05
(PID.TID 0000.0001) %MON g__g_vcflfCoriG_max          =   1.4112379284621E-04
(PID.TID 0000.0001) %MON g__g_vcflfCoriG_min          =  -1.4323448157692E-04
(PID.TID 0000.0001) %MON g__g_vcflfCoriG_mean         =  -3.6726790147928E-06
(PID.TID 0000.0001) %MON g__g_vcflfCoriG_sd           =   9.7510077443652E-05
(PID.TID 0000.0001) %MON g__g_vcflfCoriCos_max        =   1.4535550371427E-04
(PID.TID 0000.0001) %MON g__g_vcflfCoriCos_min        =   3.0239529651320E-05
(PID.TID 0000.0001) %MON g__g_vcflfCoriCos_mean       =   1.0260497651149E-04
(PID.TID 0000.0001) %MON g__g_vcflfCoriCos_sd         =   3.6683828681187E-05
(PID.TID 0000.0001) INI_CG2D: CG2D normalisation factor =  6.5682677425711703E-05
(PID.TID 0000.0001) 
(PID.TID 0000.0001)  MDSREADFIELD: opening global file: lev_t.bin
(PID.TID 0000.0001) // =======================================================
(PID.TID 0000.0001) // Field Initial Temperature at iteration          1
(PID.TID 0000.0001) // CMIN =         -1.900000000000000E+00
(PID.TID 0000.0001) // CMAX =          2.973338890075684E+01
(PID.TID 0000.0001) // CINT =          1.171606996324327E+00
(PID.TID 0000.0001) // SYMBOLS (CMIN->CMAX): -abcdefghijklmnopqrstuvwxyz+
(PID.TID 0000.0001) //                  0.0: .
(PID.TID 0000.0001) // RANGE I (Lo:Hi:Step):(   1:  90:   1)
(PID.TID 0000.0001) // RANGE J (Lo:Hi:Step):(  40:   1:  -1)
(PID.TID 0000.0001) // RANGE K (Lo:Hi:Step):(   1:   1:   1)
(PID.TID 0000.0001) // =======================================================
(PID.TID 0000.0001) K =   1
(PID.TID 0000.0001)                I=10      I=20      I=30      I=40      I=50      I=60      I=70      I=80      I=90
(PID.TID 0000.0001) |--J--|123456789|123456789|123456789|123456789|123456789|123456789|123456789|123456789|123456789|
(PID.TID 0000.0001)     40 bccdd.baa----abdedd..................................................................bbbbb
(PID.TID 0000.0001)     39 ccdddddccbbbaa...ed.....................................................----........bbbbbb
(PID.TID 0000.0001)     38 fffgfedeedddc...........................................................-----......cbbbcde
(PID.TID 0000.0001)     37 ghh..................................................................bc...bbc...edeed.defg
(PID.TID 0000.0001)     36 hh.........................................ddcb....................dcccbabccdd.eefghhihhih
(PID.TID 0000.0001)     35 hh.................................aaab..dddeddd...ffggg...........ccc....ddeeeffghijjjjih
(PID.TID 0000.0001)     34 ...................................babb.deeeeeee.ffffgghh..................ccdffghijkkkj..
(PID.TID 0000.0001)     33 ....................................accdddeeeeefffffgghhiii.................bcfijkkllllkk.
(PID.TID 0000.0001)     32 ....................................bdddeffgffgghhhhhiiijjj................dccglmnmmmmlll.
(PID.TID 0000.0001)     31 ....................................fghiiiijjjjjjkkkkklllkk..............ikkjjmooooonnmm..
(PID.TID 0000.0001)     30 ...................................mmmnmmmmmmmmmmmmmnnnnnmm............moqrrrqrqqqpppooo..
(PID.TID 0000.0001)     29 .................................pqqqqqpppppppppoppoppppponm...........ssssssrrrrrqqqqpp..
(PID.TID 0000.0001)     28 ...............................prssssrrrsssrrrrrrrrrrrrrqqpoo.........uttssstssrssrrrqqq..
(PID.TID 0000.0001)     27 ..............vv..............stuttuuuuutuuuuuuuuuuttttssrrqqq...stuu.vvvuuuuutttttsss....
(PID.TID 0000.0001)     26 ..............vvv...........uuvvvvvwwwwwwwwvvvvvvvvvuuutttsssttv.uuvxxwwwwwwvvvvuuttsr....
(PID.TID 0000.0001)     25 ..............wwwx...xxx...vvvxxxxxyyxxxxxxxxxwwwwwvvvvvuuuuuvwwx...xxxxxxwwwwwwvvutsr....
(PID.TID 0000.0001)     24 ............wwwwxyy.xxyy...wxx.yyyyyyyyyyyxxxxxxxxwwwwwwwvvwwxxyywww.xxxxxxxxxxwwwvvur....
(PID.TID 0000.0001)     23 ............xxxyyyz.xyyy...xxx..yyyyzzyyyyyyyyxxxxxxxxxwwwwwxxxwwwwwx....vwxxxxwwwwwvu....
(PID.TID 0000.0001)     22 w...........xxyyyzyyyyyz...xx.yyzzzzzzzzzzzzzyyzyyyyyyxxwwxxxxwvvvwwxw......yyyyxxxxxxwxxw
(PID.TID 0000.0001)     21 xxx........xxxxyyzzzzzzz+.....zyzzzzzzz++zzzzyyyyyyyyxxwvvwwwwvvvvvvvu........yyyyyyyyyxxx
(PID.TID 0000.0001)     20 xww.......xyyyyxyyzzzzzz+......z.zzzzz+++zzzzzzyyyyyxxxxwvwxwvuuuuuuut.........yyyyxxxxwww
(PID.TID 0000.0001)     19 vvv.......yyyyxwwxyzyyzzzzz...zzz.....++++++z++z+zzzyyyyxxxxwwvvvvvvvu...........yyxxxwwww
(PID.TID 0000.0001)     18 uut.......zzyyywwxyzyyyyzzyzzzzzz...z+z++++zz+++++++zzzyyyyxxwwwvvvvvtt..........yyxxwvvwv
(PID.TID 0000.0001)     17 uus.......z.yyyyyyxyzzyyyyyyyzz.....yzzzzzzzzzzzzzzzzzzyyyyxxwwvuuvvuut.........yyyxxwttvu
(PID.TID 0000.0001)     16 utr......yy.zyyyyxxxxxxxwxxxxy.......yyyyyyyyyyyyyyyyyyyyyyyxxwvvvuuutts........xyyyxwvuuu
(PID.TID 0000.0001)     15 ttrr....xxx.xxxwxwwwwvwwvvvww.........xwxxxxxxxxxxxxxxxxxyyyxwwwvvuttssrr......wxxxxxwwvuu
(PID.TID 0000.0001)     14 ttsq....xyxwwxwvwwwvutuuuuuuu.........wwvwwwwvwvvwwwvwvvwwwwwwvvvuuutssrr.....vwwwwwwwvvvu
(PID.TID 0000.0001)     13 tttr....wwwvvvtttuuuutttssttt.........vvvuuuuuuutttttuuuuuvwwwuuuttttssrr....uvvvvvvvvvvut
(PID.TID 0000.0001)     12 sssssstttutssssrrrrrstrqqrrssqqrrq....uuttssssrrrrrrrrrrrstttssssrssrrqp.....uuuttssttssss
(PID.TID 0000.0001)     11 poprsssrqqqqqrqppooopqpoppppppppppp..sssrrr.rqpppqqqqppppqqqoppqqqqrqqpp....prsrqqqqqppppq
(PID.TID 0000.0001)     10 lllmoooonmnnmnnnnmmmmmmlmmlllmnnnnon.qqqppp.ppppppooooooooonmnnnonnooooo..nmoponnmnnnnnmll
(PID.TID 0000.0001)      9 ihhiiiihhhhhhiiihiiiiihhhiiiijjkkmnllnnnnn.mmmmnnnnmmmmnnmmlklllllklllll.mllmmllkjiijjihhi
(PID.TID 0000.0001)      8 eeeeeeeedefgggffeeffggffffggghiiiijjijklklkkkkkkkklllkkkkjjiiijkjjjjjjkj.kkjjiihggffffedde
(PID.TID 0000.0001)      7 cccccddeedddefeddddddddddefeefffffgggghiiiiiijjjihhgggghhhhhghhhhhhhiiiihiihhgfeddddddcccc
(PID.TID 0000.0001)      6 abbcccddcccccdddddccdddddddccddddddeeeeffggggghhgeddddddeeeeeeefggggghggggffeedccbbbbbbbba
(PID.TID 0000.0001)      5 bbbcccccccccccccccccccccbbccccdddddddcccddeeddeedcbbbbbbccccccdddeeeeeddddddccbbbbaaaaaaab
(PID.TID 0000.0001)      4 bbbbbbbaaabbbbbbbbbbbbaabbabbbbcbbbbbbbbbbbbbbbbbbbabbaaabbbbbbbbbbbbbbbbb..a--aaabbbaaabb
(PID.TID 0000.0001)      3 bbbbaaa-a-............................bbaaaaaaaaaaaaaaaaaaaaaaaaaaaaaaaab..aaaaaaaabbbaaaa
(PID.TID 0000.0001)      2 ..........................................baaaaaaaaaaaa-------aa..aaaa.....aaaaaaaaaaaa...
(PID.TID 0000.0001)      1 ..........................................................................................
(PID.TID 0000.0001) // =======================================================
(PID.TID 0000.0001) // END OF FIELD                                          =
(PID.TID 0000.0001) // =======================================================
(PID.TID 0000.0001) 
(PID.TID 0000.0001)  MDSREADFIELD: opening global file: lev_s.bin
(PID.TID 0000.0001) // =======================================================
(PID.TID 0000.0001) // Field Initial Salinity at iteration          1
(PID.TID 0000.0001) // CMIN =          2.975276947021484E+01
(PID.TID 0000.0001) // CMAX =          3.747562789916992E+01
(PID.TID 0000.0001) // CINT =          2.860317936650029E-01
(PID.TID 0000.0001) // SYMBOLS (CMIN->CMAX): -abcdefghijklmnopqrstuvwxyz+
(PID.TID 0000.0001) //                  0.0: .
(PID.TID 0000.0001) // RANGE I (Lo:Hi:Step):(   1:  90:   1)
(PID.TID 0000.0001) // RANGE J (Lo:Hi:Step):(  40:   1:  -1)
(PID.TID 0000.0001) // RANGE K (Lo:Hi:Step):(   1:   1:   1)
(PID.TID 0000.0001) // =======================================================
(PID.TID 0000.0001) K =   1
(PID.TID 0000.0001)                I=10      I=20      I=30      I=40      I=50      I=60      I=70      I=80      I=90
(PID.TID 0000.0001) |--J--|123456789|123456789|123456789|123456789|123456789|123456789|123456789|123456789|123456789|
(PID.TID 0000.0001)     40 qrrrr.oonnooopqtutt..................................................................mnnop
(PID.TID 0000.0001)     39 rssrrrrrrrqqpn...ut.....................................................mmmm........opqqqr
(PID.TID 0000.0001)     38 ssrrqqqqrrqpo...........................................................lkkll......onoqrrs
(PID.TID 0000.0001)     37 ssr..................................................................hg...lln...qppqr.rrrs
(PID.TID 0000.0001)     36 rr.........................................lkji....................feeegikmoop.pqrssssssss
(PID.TID 0000.0001)     35 rr.................................kkkk..lllllki...jijjj...........aa-....opqrrrrrrrssttss
(PID.TID 0000.0001)     34 ...................................jlll.kklllllk.ijkkkjih..................hlpqrqrrsstts..
(PID.TID 0000.0001)     33 ....................................iklkkkkkkkkkjkkjjjjjjii.................jmprrsstttttt.
(PID.TID 0000.0001)     32 ....................................iklllkllllllllkkkkkkkji................gilpstuuttuuut.
(PID.TID 0000.0001)     31 ....................................lmnonnnnoooonnmmmmllkjj..............loopqtvvvuuuuuu..
(PID.TID 0000.0001)     30 ...................................pppppppqqqqpppoooonnmlkk............ptvxwwvvwvvvvvvvu..
(PID.TID 0000.0001)     29 .................................pqqrqqqqqqrrrqqppqqqpponmll...........vxxxxxxwwwwwxwwxw..
(PID.TID 0000.0001)     28 ...............................prrrrrqqrrrrrsrrsrssssssrqonmm.........wxxxxxxxyyyyyyyyxx..
(PID.TID 0000.0001)     27 ..............xx..............prrrrrrrrrssssssstttssssssrqpoop...uwww.wwxxxyyy++zzzzyy....
(PID.TID 0000.0001)     26 ..............wxx...........ppqrrrrrrsssrrstsstttssrrrrrrrqppqqp.wwwvvwwwwwxyy+++zzyxw....
(PID.TID 0000.0001)     25 ..............wxxv...kkk...ooopqrrrrrssrrrrrrrssssqqpppppppppppoo...vvutuuvvwxyyyxxvvu....
(PID.TID 0000.0001)     24 ............uvvwwur.lmlk...nmm.pqqqqrrrrrqqqqrrqqrpppppooooonmmmnooo.uuuuuuttuvvvuvuut....
(PID.TID 0000.0001)     23 ............vvuvtqp.lmml...mln..ppppqpqppppppqpppppppppqppponnnnnoopm....xvuuuvvvvuuut....
(PID.TID 0000.0001)     22 r...........vuttsqqpnppn...mm.oppqqrrqqqqqqppppqqrrrqqqrrppppoopooomjj......uuvvvvvuttssrr
(PID.TID 0000.0001)     21 qmm........ttsssssssrsqon.....opqqqqqqqrrrrqqqssssssrrrrrrrrpqqqppomll........tvvvvuttssrr
(PID.TID 0000.0001)     20 sqq.......sttssrrsrrrrpol......p.qrqpqrrrrrrrstttttsssrrsssrqrrrrqqqpo.........wwwvvvuuutt
(PID.TID 0000.0001)     19 tsr.......ssssrrrrpppppnmmm...oqq.....qrqqsrrstttuuuttssttssrrssrrrrqq...........wwwvuvvvv
(PID.TID 0000.0001)     18 wut.......ssrrrrrqppppppppoooorrr...poqqqprrrttttuuutuuuuuutttttttutsss..........yyxwwxwxx
(PID.TID 0000.0001)     17 wwu.......s.rrrrrrqppppqqqqqqqr.....rrsrqrsssuusrtuuuvvvwwvvvuuuuutttss.........xyzyyyyxxx
(PID.TID 0000.0001)     16 vvt......ss.qrrssrqrqpqrrrrrrr.......ssrrstsstusrsuuuvwwwwxxwwvvvuttttsr........yz+zzzxwww
(PID.TID 0000.0001)     15 utss....stt.rrssstttsrrsrstsr.........ssstttssttsuuttuvvvvwxwwwwwuttsssrr......xyyyyxyyxwv
(PID.TID 0000.0001)     14 utts....sstrrssstuuuuuuuuuutt.........stttuutttttttuttttttuvvvvvvutsrqrrr.....vxxwwwwxwvwv
(PID.TID 0000.0001)     13 uuut....ttttttttuuuuuvtuuuuuu.........ttttuutttttttuutsssstttttstsqrqqppp....uwwwvuvvvutvv
(PID.TID 0000.0001)     12 ttttttttttttttttttttttssuuuuutuuut....tttttttttttsssssrrrrrrrqqqqqppppoo.....rvvuuttttttuu
(PID.TID 0000.0001)     11 rqsttttttttuuttttsssssrrstttttttsss..ttttts.tsssrrrrqqqqqppppoonnooooooo....oruttttsssrqrs
(PID.TID 0000.0001)     10 pppqrssrqqrqpqrssrrqqqqqqrrrrrrrrrrs.sssssr.rssrrqqpppppppooooonnnoooonn..moqrrrqqqqqqqqqq
(PID.TID 0000.0001)      9 oonooooooooonnnooooooooooppppppqqqqqrrrqrq.pppqqqqqppppppppppoooooooooll.lmoqqqqppooooopoo
(PID.TID 0000.0001)      8 nnnoonooooooonnnnnnnoooonoonoooppopqqqqqqqppopppqqqpppppppppppppppooopon.lnopppoooonnnnooo
(PID.TID 0000.0001)      7 ooooooooooopponnnooooooonnnnnonnooooooooopppppppoooooooooopppppppppoopqnnmnoooonnnonnnnnno
(PID.TID 0000.0001)      6 oooonnoonnnnooooooooooooonnnnnnnnnnnnnnnnoooopppooooooooooooooppppppppppoooooooonnnnnmnnnn
(PID.TID 0000.0001)      5 oooonnnnnnnnnnnnnnnnnoooooonnnnnnonnnnnnnnnoooooooooooonnnnnnooooooopoooonoooonnnnnnnooooo
(PID.TID 0000.0001)      4 oooonnnooonnnnnnnnnnnnnnoooooonnnooooonnnooooooooppponnnnmmmnnnnmnnoonnnnn..nnnooooooooooo
(PID.TID 0000.0001)      3 ooonnnnnnn............................nnoooooonnooooonnnnnnnoonnnnnnnnmmm..ooopooooooooooo
(PID.TID 0000.0001)      2 ..........................................pppooooonnnnnnoooppppo..nnnn.....qqqpppoooooo...
(PID.TID 0000.0001)      1 ..........................................................................................
(PID.TID 0000.0001) // =======================================================
(PID.TID 0000.0001) // END OF FIELD                                          =
(PID.TID 0000.0001) // =======================================================
(PID.TID 0000.0001) 
(PID.TID 0000.0001) Start initial hydrostatic pressure computation
(PID.TID 0000.0001) Pressure is predetermined for buoyancyRelation OCEANIC
(PID.TID 0000.0001) 
(PID.TID 0000.0001)  MDSREADFIELD: opening file: xx_theta.0000000000.001.001.data
(PID.TID 0000.0001)  MDSREADFIELD: opening file: xx_salt.0000000000.001.001.data
(PID.TID 0000.0001)  MDSREADFIELD: opening file: xx_diffkr.0000000000.001.001.data
(PID.TID 0000.0001)  MDSREADFIELD: opening global file: trenberth_taux.bin
(PID.TID 0000.0001)  MDSREADFIELD: opening global file: trenberth_tauy.bin
(PID.TID 0000.0001)  MDSREADFIELD: opening global file: ncep_qnet.bin
(PID.TID 0000.0001)  MDSREADFIELD: opening global file: lev_sst.bin
(PID.TID 0000.0001)  MDSREADFIELD: opening global file: lev_sss.bin
(PID.TID 0000.0001) // =======================================================
(PID.TID 0000.0001) // Model current state
(PID.TID 0000.0001) // =======================================================
(PID.TID 0000.0001) 
S/R EXTERNAL_FIELDS_LOAD: Reading new data:   12    1         0  0.000000000000E+00
(PID.TID 0000.0001)  MDSREADFIELD: opening global file: trenberth_taux.bin
(PID.TID 0000.0001)  MDSREADFIELD: opening global file: trenberth_taux.bin
(PID.TID 0000.0001)  MDSREADFIELD: opening global file: trenberth_tauy.bin
(PID.TID 0000.0001)  MDSREADFIELD: opening global file: trenberth_tauy.bin
(PID.TID 0000.0001)  MDSREADFIELD: opening global file: ncep_qnet.bin
(PID.TID 0000.0001)  MDSREADFIELD: opening global file: ncep_qnet.bin
(PID.TID 0000.0001)  MDSREADFIELD: opening global file: lev_sst.bin
(PID.TID 0000.0001)  MDSREADFIELD: opening global file: lev_sst.bin
(PID.TID 0000.0001)  MDSREADFIELD: opening global file: lev_sss.bin
(PID.TID 0000.0001)  MDSREADFIELD: opening global file: lev_sss.bin
time,SST,SSS,fu,fv,Q,E-P,i0,i1,a,b =   0.0000E+00  5.3151E-02  3.4364E+01 -4.0500E-02 -6.3753E-02  2.6510E+02  0.0000E+00    12     1  5.0000E-01  5.0000E-01
time,fu0,fu1,fu =   0.0000E+00 -4.5368E-02 -3.5633E-02 -4.0500E-02  5.000000000000000E-01  5.000000000000000E-01
(PID.TID 0000.0001)  MDSREADFIELD: opening file: xx_tauu.0000000000.001.001.data
(PID.TID 0000.0001)  MDSREADFIELD: opening file: xx_tauv.0000000000.001.001.data
(PID.TID 0000.0001)  MDSREADFIELD: opening file: xx_sflux.0000000000.001.001.data
(PID.TID 0000.0001)  MDSREADFIELD: opening file: xx_hflux.0000000000.001.001.data
 cg2d: Sum(rhs),rhsMax =  -5.41233724504764E-16  2.53364304519873E+00
time,SST,SSS,fu,fv,Q,E-P,i0,i1,a,b =   4.3200E+04  8.3327E-02  3.4375E+01 -4.0338E-02 -6.3536E-02  2.6512E+02  0.0000E+00    12     1  5.1667E-01  4.8333E-01
time,fu0,fu1,fu =   4.3200E+04 -4.5368E-02 -3.5633E-02 -4.0338E-02  5.166666666666667E-01  4.833333333333333E-01
 cg2d: Sum(rhs),rhsMax =   6.27831120425526E-14  5.05307478634997E+00
time,SST,SSS,fu,fv,Q,E-P,i0,i1,a,b =   8.6400E+04  1.1350E-01  3.4387E+01 -4.0176E-02 -6.3320E-02  2.6514E+02  0.0000E+00    12     1  5.3333E-01  4.6667E-01
time,fu0,fu1,fu =   8.6400E+04 -4.5368E-02 -3.5633E-02 -4.0176E-02  5.333333333333333E-01  4.666666666666667E-01
 cg2d: Sum(rhs),rhsMax =   9.78488123859478E-14  6.32564766002464E+00
time,SST,SSS,fu,fv,Q,E-P,i0,i1,a,b =   1.2960E+05  1.4368E-01  3.4399E+01 -4.0014E-02 -6.3103E-02  2.6516E+02  0.0000E+00    12     1  5.5000E-01  4.5000E-01
time,fu0,fu1,fu =   1.2960E+05 -4.5368E-02 -3.5633E-02 -4.0014E-02  5.500000000000000E-01  4.500000000000000E-01
 cg2d: Sum(rhs),rhsMax =  -7.64319163515381E-15  6.76202107413719E+00
time,SST,SSS,fu,fv,Q,E-P,i0,i1,a,b =   1.7280E+05  1.7385E-01  3.4410E+01 -3.9851E-02 -6.2886E-02  2.6519E+02  0.0000E+00    12     1  5.6667E-01  4.3333E-01
time,fu0,fu1,fu =   1.7280E+05 -4.5368E-02 -3.5633E-02 -3.9851E-02  5.666666666666667E-01  4.333333333333333E-01
 cg2d: Sum(rhs),rhsMax =   2.63174898540441E-14  6.91128535917370E+00
time,SST,SSS,fu,fv,Q,E-P,i0,i1,a,b =   2.1600E+05  2.0403E-01  3.4422E+01 -3.9689E-02 -6.2670E-02  2.6521E+02  0.0000E+00    12     1  5.8333E-01  4.1667E-01
time,fu0,fu1,fu =   2.1600E+05 -4.5368E-02 -3.5633E-02 -3.9689E-02  5.833333333333334E-01  4.166666666666666E-01
 cg2d: Sum(rhs),rhsMax =   5.52795656472149E-14  6.96038704691244E+00
time,SST,SSS,fu,fv,Q,E-P,i0,i1,a,b =   2.5920E+05  2.3421E-01  3.4434E+01 -3.9527E-02 -6.2453E-02  2.6523E+02  0.0000E+00    12     1  6.0000E-01  4.0000E-01
time,fu0,fu1,fu =   2.5920E+05 -4.5368E-02 -3.5633E-02 -3.9527E-02  6.000000000000000E-01  4.000000000000000E-01
 cg2d: Sum(rhs),rhsMax =  -1.01862095147620E-13  7.26221759046288E+00
time,SST,SSS,fu,fv,Q,E-P,i0,i1,a,b =   3.0240E+05  2.6438E-01  3.4446E+01 -3.9365E-02 -6.2237E-02  2.6525E+02  0.0000E+00    12     1  6.1667E-01  3.8333E-01
time,fu0,fu1,fu =   3.0240E+05 -4.5368E-02 -3.5633E-02 -3.9365E-02  6.166666666666667E-01  3.833333333333333E-01
 cg2d: Sum(rhs),rhsMax =  -1.73666040315795E-13  7.87499194900247E+00
time,SST,SSS,fu,fv,Q,E-P,i0,i1,a,b =   3.4560E+05  2.9456E-01  3.4457E+01 -3.9202E-02 -6.2020E-02  2.6528E+02  0.0000E+00    12     1  6.3333E-01  3.6667E-01
time,fu0,fu1,fu =   3.4560E+05 -4.5368E-02 -3.5633E-02 -3.9202E-02  6.333333333333333E-01  3.666666666666667E-01
 cg2d: Sum(rhs),rhsMax =  -1.34611072288848E-13  8.21213972807563E+00
time,SST,SSS,fu,fv,Q,E-P,i0,i1,a,b =   3.8880E+05  3.2473E-01  3.4469E+01 -3.9040E-02 -6.1804E-02  2.6530E+02  0.0000E+00    12     1  6.5000E-01  3.5000E-01
time,fu0,fu1,fu =   3.8880E+05 -4.5368E-02 -3.5633E-02 -3.9040E-02  6.500000000000000E-01  3.500000000000000E-01
 cg2d: Sum(rhs),rhsMax =  -2.67206395898612E-13  8.31512136376636E+00
time,SST,SSS,fu,fv,Q,E-P,i0,i1,a,b =   4.3200E+05  3.5491E-01  3.4481E+01 -3.8878E-02 -6.1587E-02  2.6532E+02  0.0000E+00    12     1  6.6667E-01  3.3333E-01
time,fu0,fu1,fu =   4.3200E+05 -4.5368E-02 -3.5633E-02 -3.8878E-02  6.666666666666666E-01  3.333333333333334E-01
 cg2d: Sum(rhs),rhsMax =  -1.09624722494095E-12  8.25257067290291E+00
time,SST,SSS,fu,fv,Q,E-P,i0,i1,a,b =   4.7520E+05  3.8508E-01  3.4492E+01 -3.8716E-02 -6.1371E-02  2.6534E+02  0.0000E+00    12     1  6.8333E-01  3.1667E-01
time,fu0,fu1,fu =   4.7520E+05 -4.5368E-02 -3.5633E-02 -3.8716E-02  6.833333333333333E-01  3.166666666666667E-01
 cg2d: Sum(rhs),rhsMax =  -8.68197007342086E-13  8.09293762885827E+00
time,SST,SSS,fu,fv,Q,E-P,i0,i1,a,b =   5.1840E+05  4.1526E-01  3.4504E+01 -3.8553E-02 -6.1154E-02  2.6537E+02  0.0000E+00    12     1  7.0000E-01  3.0000E-01
time,fu0,fu1,fu =   5.1840E+05 -4.5368E-02 -3.5633E-02 -3.8553E-02  7.000000000000000E-01  3.000000000000000E-01
 cg2d: Sum(rhs),rhsMax =  -8.66933261289837E-13  8.55637530605071E+00
time,SST,SSS,fu,fv,Q,E-P,i0,i1,a,b =   5.6160E+05  4.4544E-01  3.4516E+01 -3.8391E-02 -6.0938E-02  2.6539E+02  0.0000E+00    12     1  7.1667E-01  2.8333E-01
time,fu0,fu1,fu =   5.6160E+05 -4.5368E-02 -3.5633E-02 -3.8391E-02  7.166666666666667E-01  2.833333333333333E-01
 cg2d: Sum(rhs),rhsMax =  -1.10961066723814E-12  9.25214403713224E+00
time,SST,SSS,fu,fv,Q,E-P,i0,i1,a,b =   6.0480E+05  4.7561E-01  3.4527E+01 -3.8229E-02 -6.0721E-02  2.6541E+02  0.0000E+00    12     1  7.3333E-01  2.6667E-01
time,fu0,fu1,fu =   6.0480E+05 -4.5368E-02 -3.5633E-02 -3.8229E-02  7.333333333333333E-01  2.666666666666667E-01
 cg2d: Sum(rhs),rhsMax =  -8.45556263895375E-13  9.75412758742914E+00
time,SST,SSS,fu,fv,Q,E-P,i0,i1,a,b =   6.4800E+05  5.0579E-01  3.4539E+01 -3.8067E-02 -6.0505E-02  2.6543E+02  0.0000E+00    12     1  7.5000E-01  2.5000E-01
time,fu0,fu1,fu =   6.4800E+05 -4.5368E-02 -3.5633E-02 -3.8067E-02  7.500000000000000E-01  2.500000000000000E-01
 cg2d: Sum(rhs),rhsMax =  -7.80358416774263E-13  1.00472791850534E+01
time,SST,SSS,fu,fv,Q,E-P,i0,i1,a,b =   6.9120E+05  5.3596E-01  3.4551E+01 -3.7904E-02 -6.0288E-02  2.6546E+02  0.0000E+00    12     1  7.6667E-01  2.3333E-01
time,fu0,fu1,fu =   6.9120E+05 -4.5368E-02 -3.5633E-02 -3.7904E-02  7.666666666666667E-01  2.333333333333333E-01
 cg2d: Sum(rhs),rhsMax =  -8.89460380348872E-13  1.01282964952821E+01
time,SST,SSS,fu,fv,Q,E-P,i0,i1,a,b =   7.3440E+05  5.6614E-01  3.4563E+01 -3.7742E-02 -6.0072E-02  2.6548E+02  0.0000E+00    12     1  7.8333E-01  2.1667E-01
time,fu0,fu1,fu =   7.3440E+05 -4.5368E-02 -3.5633E-02 -3.7742E-02  7.833333333333333E-01  2.166666666666667E-01
 cg2d: Sum(rhs),rhsMax =  -8.16511788737095E-13  1.00066236471319E+01
time,SST,SSS,fu,fv,Q,E-P,i0,i1,a,b =   7.7760E+05  5.9632E-01  3.4574E+01 -3.7580E-02 -5.9855E-02  2.6550E+02  0.0000E+00    12     1  8.0000E-01  2.0000E-01
time,fu0,fu1,fu =   7.7760E+05 -4.5368E-02 -3.5633E-02 -3.7580E-02  8.000000000000000E-01  2.000000000000000E-01
 cg2d: Sum(rhs),rhsMax =  -6.98191504611145E-13  9.70409645617005E+00
time,SST,SSS,fu,fv,Q,E-P,i0,i1,a,b =   8.2080E+05  6.2649E-01  3.4586E+01 -3.7418E-02 -5.9638E-02  2.6552E+02  0.0000E+00    12     1  8.1667E-01  1.8333E-01
time,fu0,fu1,fu =   8.2080E+05 -4.5368E-02 -3.5633E-02 -3.7418E-02  8.166666666666667E-01  1.833333333333333E-01
 cg2d: Sum(rhs),rhsMax =  -9.30384241870641E-13  9.47667283577994E+00
time,SST,SSS,fu,fv,Q,E-P,i0,i1,a,b =   8.6400E+05  6.5667E-01  3.4598E+01 -3.7255E-02 -5.9422E-02  2.6555E+02  0.0000E+00    12     1  8.3333E-01  1.6667E-01
time,fu0,fu1,fu =   8.6400E+05 -4.5368E-02 -3.5633E-02 -3.7255E-02  8.333333333333334E-01  1.666666666666666E-01
 cg2d: Sum(rhs),rhsMax =  -8.68891764094215E-13  1.03748401635907E+01
time,SST,SSS,fu,fv,Q,E-P,i0,i1,a,b =   9.0720E+05  6.8684E-01  3.4609E+01 -3.7093E-02 -5.9205E-02  2.6557E+02  0.0000E+00    12     1  8.5000E-01  1.5000E-01
time,fu0,fu1,fu =   9.0720E+05 -4.5368E-02 -3.5633E-02 -3.7093E-02  8.500000000000000E-01  1.500000000000000E-01
 cg2d: Sum(rhs),rhsMax =  -6.82435011278848E-13  1.11482726022286E+01
time,SST,SSS,fu,fv,Q,E-P,i0,i1,a,b =   9.5040E+05  7.1702E-01  3.4621E+01 -3.6931E-02 -5.8989E-02  2.6559E+02  0.0000E+00    12     1  8.6667E-01  1.3333E-01
time,fu0,fu1,fu =   9.5040E+05 -4.5368E-02 -3.5633E-02 -3.6931E-02  8.666666666666667E-01  1.333333333333333E-01
 cg2d: Sum(rhs),rhsMax =  -7.08854849817975E-13  1.17644190526975E+01
time,SST,SSS,fu,fv,Q,E-P,i0,i1,a,b =   9.9360E+05  7.4719E-01  3.4633E+01 -3.6769E-02 -5.8772E-02  2.6561E+02  0.0000E+00    12     1  8.8333E-01  1.1667E-01
time,fu0,fu1,fu =   9.9360E+05 -4.5368E-02 -3.5633E-02 -3.6769E-02  8.833333333333333E-01  1.166666666666667E-01
 cg2d: Sum(rhs),rhsMax =  -7.31274416021499E-13  1.21959720875397E+01
time,SST,SSS,fu,fv,Q,E-P,i0,i1,a,b =   1.0368E+06  7.7737E-01  3.4644E+01 -3.6606E-02 -5.8556E-02  2.6564E+02  0.0000E+00    12     1  9.0000E-01  1.0000E-01
time,fu0,fu1,fu =   1.0368E+06 -4.5368E-02 -3.5633E-02 -3.6606E-02  9.000000000000000E-01  9.999999999999998E-02
 cg2d: Sum(rhs),rhsMax =  -7.36074395879527E-13  1.24221987652346E+01
time,SST,SSS,fu,fv,Q,E-P,i0,i1,a,b =   1.0800E+06  8.0755E-01  3.4656E+01 -3.6444E-02 -5.8339E-02  2.6566E+02  0.0000E+00    12     1  9.1667E-01  8.3333E-02
time,fu0,fu1,fu =   1.0800E+06 -4.5368E-02 -3.5633E-02 -3.6444E-02  9.166666666666666E-01  8.333333333333337E-02
 cg2d: Sum(rhs),rhsMax =  -7.87278228719934E-13  1.24298971531029E+01
time,SST,SSS,fu,fv,Q,E-P,i0,i1,a,b =   1.1232E+06  8.3772E-01  3.4668E+01 -3.6282E-02 -5.8123E-02  2.6568E+02  0.0000E+00    12     1  9.3333E-01  6.6667E-02
time,fu0,fu1,fu =   1.1232E+06 -4.5368E-02 -3.5633E-02 -3.6282E-02  9.333333333333333E-01  6.666666666666665E-02
 cg2d: Sum(rhs),rhsMax =  -9.36254546113346E-13  1.22139653314158E+01
time,SST,SSS,fu,fv,Q,E-P,i0,i1,a,b =   1.1664E+06  8.6790E-01  3.4679E+01 -3.6120E-02 -5.7906E-02  2.6570E+02  0.0000E+00    12     1  9.5000E-01  5.0000E-02
time,fu0,fu1,fu =   1.1664E+06 -4.5368E-02 -3.5633E-02 -3.6120E-02  9.500000000000000E-01  5.000000000000004E-02
 cg2d: Sum(rhs),rhsMax =  -9.28979115855100E-13  1.17775992284633E+01
time,SST,SSS,fu,fv,Q,E-P,i0,i1,a,b =   1.2096E+06  8.9807E-01  3.4691E+01 -3.5957E-02 -5.7690E-02  2.6573E+02  0.0000E+00    12     1  9.6667E-01  3.3333E-02
time,fu0,fu1,fu =   1.2096E+06 -4.5368E-02 -3.5633E-02 -3.5957E-02  9.666666666666667E-01  3.333333333333333E-02
 cg2d: Sum(rhs),rhsMax =  -1.13674000767894E-12  1.11321543546333E+01
time,SST,SSS,fu,fv,Q,E-P,i0,i1,a,b =   1.2528E+06  9.2825E-01  3.4703E+01 -3.5795E-02 -5.7473E-02  2.6575E+02  0.0000E+00    12     1  9.8333E-01  1.6667E-02
time,fu0,fu1,fu =   1.2528E+06 -4.5368E-02 -3.5633E-02 -3.5795E-02  9.833333333333333E-01  1.666666666666672E-02
 cg2d: Sum(rhs),rhsMax =  -1.41931952302166E-12  1.02967139421685E+01
S/R EXTERNAL_FIELDS_LOAD: Reading new data:    1    2        30  1.296000000000E+06
(PID.TID 0000.0001)  MDSREADFIELD: opening global file: trenberth_taux.bin
(PID.TID 0000.0001)  MDSREADFIELD: opening global file: trenberth_taux.bin
(PID.TID 0000.0001)  MDSREADFIELD: opening global file: trenberth_tauy.bin
(PID.TID 0000.0001)  MDSREADFIELD: opening global file: trenberth_tauy.bin
(PID.TID 0000.0001)  MDSREADFIELD: opening global file: ncep_qnet.bin
(PID.TID 0000.0001)  MDSREADFIELD: opening global file: ncep_qnet.bin
(PID.TID 0000.0001)  MDSREADFIELD: opening global file: lev_sst.bin
(PID.TID 0000.0001)  MDSREADFIELD: opening global file: lev_sst.bin
(PID.TID 0000.0001)  MDSREADFIELD: opening global file: lev_sss.bin
(PID.TID 0000.0001)  MDSREADFIELD: opening global file: lev_sss.bin
time,SST,SSS,fu,fv,Q,E-P,i0,i1,a,b =   1.2960E+06  9.5843E-01  3.4715E+01 -3.5633E-02 -5.7257E-02  2.6577E+02  0.0000E+00     1     2  0.0000E+00  1.0000E+00
time,fu0,fu1,fu =   1.2960E+06 -3.5633E-02 -1.4435E-02 -3.5633E-02  0.000000000000000E+00  1.000000000000000E+00
 cg2d: Sum(rhs),rhsMax =  -1.18140219829144E-12  9.29740447801208E+00
time,SST,SSS,fu,fv,Q,E-P,i0,i1,a,b =   1.3392E+06  9.3359E-01  3.4710E+01 -3.5280E-02 -5.6596E-02  2.6535E+02  0.0000E+00     1     2  1.6667E-02  9.8333E-01
time,fu0,fu1,fu =   1.3392E+06 -3.5633E-02 -1.4435E-02 -3.5280E-02  1.666666666666667E-02  9.833333333333333E-01
 cg2d: Sum(rhs),rhsMax =  -1.21165577571247E-12  9.11143480608331E+00
time,SST,SSS,fu,fv,Q,E-P,i0,i1,a,b =   1.3824E+06  9.0875E-01  3.4705E+01 -3.4926E-02 -5.5936E-02  2.6493E+02  0.0000E+00     1     2  3.3333E-02  9.6667E-01
time,fu0,fu1,fu =   1.3824E+06 -3.5633E-02 -1.4435E-02 -3.4926E-02  3.333333333333333E-02  9.666666666666667E-01
 cg2d: Sum(rhs),rhsMax =  -1.76005737761997E-12  9.23484282339445E+00
time,SST,SSS,fu,fv,Q,E-P,i0,i1,a,b =   1.4256E+06  8.8391E-01  3.4700E+01 -3.4573E-02 -5.5276E-02  2.6451E+02  0.0000E+00     1     2  5.0000E-02  9.5000E-01
time,fu0,fu1,fu =   1.4256E+06 -3.5633E-02 -1.4435E-02 -3.4573E-02  5.000000000000000E-02  9.500000000000000E-01
 cg2d: Sum(rhs),rhsMax =  -1.29149468897083E-12  9.27184051403945E+00
time,SST,SSS,fu,fv,Q,E-P,i0,i1,a,b =   1.4688E+06  8.5907E-01  3.4695E+01 -3.4220E-02 -5.4615E-02  2.6408E+02  0.0000E+00     1     2  6.6667E-02  9.3333E-01
time,fu0,fu1,fu =   1.4688E+06 -3.5633E-02 -1.4435E-02 -3.4220E-02  6.666666666666667E-02  9.333333333333333E-01
 cg2d: Sum(rhs),rhsMax =  -1.36588657051462E-12  9.21972028018107E+00
time,SST,SSS,fu,fv,Q,E-P,i0,i1,a,b =   1.5120E+06  8.3424E-01  3.4690E+01 -3.3866E-02 -5.3955E-02  2.6366E+02  0.0000E+00     1     2  8.3333E-02  9.1667E-01
time,fu0,fu1,fu =   1.5120E+06 -3.5633E-02 -1.4435E-02 -3.3866E-02  8.333333333333333E-02  9.166666666666666E-01
 cg2d: Sum(rhs),rhsMax =  -9.67198543477821E-13  9.07797465695669E+00
time,SST,SSS,fu,fv,Q,E-P,i0,i1,a,b =   1.5552E+06  8.0940E-01  3.4685E+01 -3.3513E-02 -5.3295E-02  2.6324E+02  0.0000E+00     1     2  1.0000E-01  9.0000E-01
time,fu0,fu1,fu =   1.5552E+06 -3.5633E-02 -1.4435E-02 -3.3513E-02  1.000000000000000E-01  9.000000000000000E-01
 cg2d: Sum(rhs),rhsMax =  -8.63496774083927E-13  8.84823876811064E+00
time,SST,SSS,fu,fv,Q,E-P,i0,i1,a,b =   1.5984E+06  7.8456E-01  3.4680E+01 -3.3160E-02 -5.2634E-02  2.6282E+02  0.0000E+00     1     2  1.1667E-01  8.8333E-01
time,fu0,fu1,fu =   1.5984E+06 -3.5633E-02 -1.4435E-02 -3.3160E-02  1.166666666666667E-01  8.833333333333333E-01
 cg2d: Sum(rhs),rhsMax =  -9.06420771773497E-13  8.53412704852029E+00
time,SST,SSS,fu,fv,Q,E-P,i0,i1,a,b =   1.6416E+06  7.5972E-01  3.4675E+01 -3.2807E-02 -5.1974E-02  2.6240E+02  0.0000E+00     1     2  1.3333E-01  8.6667E-01
time,fu0,fu1,fu =   1.6416E+06 -3.5633E-02 -1.4435E-02 -3.2807E-02  1.333333333333333E-01  8.666666666666667E-01
 cg2d: Sum(rhs),rhsMax =  -4.73052153004971E-13  8.14100360243354E+00
time,SST,SSS,fu,fv,Q,E-P,i0,i1,a,b =   1.6848E+06  7.3488E-01  3.4671E+01 -3.2453E-02 -5.1313E-02  2.6198E+02  0.0000E+00     1     2  1.5000E-01  8.5000E-01
time,fu0,fu1,fu =   1.6848E+06 -3.5633E-02 -1.4435E-02 -3.2453E-02  1.500000000000000E-01  8.500000000000000E-01
 cg2d: Sum(rhs),rhsMax =  -5.05658015459431E-13  7.67572500521107E+00
time,SST,SSS,fu,fv,Q,E-P,i0,i1,a,b =   1.7280E+06  7.1005E-01  3.4666E+01 -3.2100E-02 -5.0653E-02  2.6156E+02  0.0000E+00     1     2  1.6667E-01  8.3333E-01
time,fu0,fu1,fu =   1.7280E+06 -3.5633E-02 -1.4435E-02 -3.2100E-02  1.666666666666667E-01  8.333333333333334E-01
 cg2d: Sum(rhs),rhsMax =  -8.23029144836340E-13  7.14638711661611E+00
time,SST,SSS,fu,fv,Q,E-P,i0,i1,a,b =   1.7712E+06  6.8521E-01  3.4661E+01 -3.1747E-02 -4.9993E-02  2.6113E+02  0.0000E+00     1     2  1.8333E-01  8.1667E-01
time,fu0,fu1,fu =   1.7712E+06 -3.5633E-02 -1.4435E-02 -3.1747E-02  1.833333333333333E-01  8.166666666666667E-01
 cg2d: Sum(rhs),rhsMax =  -5.92095816820404E-13  7.16032442575611E+00
time,SST,SSS,fu,fv,Q,E-P,i0,i1,a,b =   1.8144E+06  6.6037E-01  3.4656E+01 -3.1393E-02 -4.9332E-02  2.6071E+02  0.0000E+00     1     2  2.0000E-01  8.0000E-01
time,fu0,fu1,fu =   1.8144E+06 -3.5633E-02 -1.4435E-02 -3.1393E-02  2.000000000000000E-01  8.000000000000000E-01
 cg2d: Sum(rhs),rhsMax =  -2.28594920770320E-13  7.19604410591255E+00
time,SST,SSS,fu,fv,Q,E-P,i0,i1,a,b =   1.8576E+06  6.3553E-01  3.4651E+01 -3.1040E-02 -4.8672E-02  2.6029E+02  0.0000E+00     1     2  2.1667E-01  7.8333E-01
time,fu0,fu1,fu =   1.8576E+06 -3.5633E-02 -1.4435E-02 -3.1040E-02  2.166666666666667E-01  7.833333333333333E-01
 cg2d: Sum(rhs),rhsMax =  -7.84705633805061E-13  7.21623308436997E+00
time,SST,SSS,fu,fv,Q,E-P,i0,i1,a,b =   1.9008E+06  6.1069E-01  3.4646E+01 -3.0687E-02 -4.8012E-02  2.5987E+02  0.0000E+00     1     2  2.3333E-01  7.6667E-01
time,fu0,fu1,fu =   1.9008E+06 -3.5633E-02 -1.4435E-02 -3.0687E-02  2.333333333333333E-01  7.666666666666666E-01
 cg2d: Sum(rhs),rhsMax =  -5.38874500577435E-14  7.36407413913870E+00
time,SST,SSS,fu,fv,Q,E-P,i0,i1,a,b =   1.9440E+06  5.8585E-01  3.4641E+01 -3.0333E-02 -4.7351E-02  2.5945E+02  0.0000E+00     1     2  2.5000E-01  7.5000E-01
time,fu0,fu1,fu =   1.9440E+06 -3.5633E-02 -1.4435E-02 -3.0333E-02  2.500000000000000E-01  7.500000000000000E-01
 cg2d: Sum(rhs),rhsMax =   1.48984991010792E-13  7.63411971566936E+00
time,SST,SSS,fu,fv,Q,E-P,i0,i1,a,b =   1.9872E+06  5.6102E-01  3.4636E+01 -2.9980E-02 -4.6691E-02  2.5903E+02  0.0000E+00     1     2  2.6667E-01  7.3333E-01
time,fu0,fu1,fu =   1.9872E+06 -3.5633E-02 -1.4435E-02 -2.9980E-02  2.666666666666667E-01  7.333333333333334E-01
 cg2d: Sum(rhs),rhsMax =   2.79734568842116E-13  7.83757942896408E+00
time,SST,SSS,fu,fv,Q,E-P,i0,i1,a,b =   2.0304E+06  5.3618E-01  3.4631E+01 -2.9627E-02 -4.6031E-02  2.5861E+02  0.0000E+00     1     2  2.8333E-01  7.1667E-01
time,fu0,fu1,fu =   2.0304E+06 -3.5633E-02 -1.4435E-02 -2.9627E-02  2.833333333333333E-01  7.166666666666667E-01
 cg2d: Sum(rhs),rhsMax =  -1.37737043992558E-14  7.97661619643511E+00
time,SST,SSS,fu,fv,Q,E-P,i0,i1,a,b =   2.0736E+06  5.1134E-01  3.4627E+01 -2.9273E-02 -4.5370E-02  2.5818E+02  0.0000E+00     1     2  3.0000E-01  7.0000E-01
time,fu0,fu1,fu =   2.0736E+06 -3.5633E-02 -1.4435E-02 -2.9273E-02  3.000000000000000E-01  7.000000000000000E-01
 cg2d: Sum(rhs),rhsMax =  -1.81799020282369E-15  8.05769497211973E+00
time,SST,SSS,fu,fv,Q,E-P,i0,i1,a,b =   2.1168E+06  4.8650E-01  3.4622E+01 -2.8920E-02 -4.4710E-02  2.5776E+02  0.0000E+00     1     2  3.1667E-01  6.8333E-01
time,fu0,fu1,fu =   2.1168E+06 -3.5633E-02 -1.4435E-02 -2.8920E-02  3.166666666666667E-01  6.833333333333333E-01
 cg2d: Sum(rhs),rhsMax =   1.25295607222853E-13  8.09041663245626E+00
time,SST,SSS,fu,fv,Q,E-P,i0,i1,a,b =   2.1600E+06  4.6166E-01  3.4617E+01 -2.8567E-02 -4.4050E-02  2.5734E+02  0.0000E+00     1     2  3.3333E-01  6.6667E-01
time,fu0,fu1,fu =   2.1600E+06 -3.5633E-02 -1.4435E-02 -2.8567E-02  3.333333333333333E-01  6.666666666666667E-01
 cg2d: Sum(rhs),rhsMax =   4.25041946083837E-13  8.08616407255559E+00
time,SST,SSS,fu,fv,Q,E-P,i0,i1,a,b =   2.2032E+06  4.3683E-01  3.4612E+01 -2.8214E-02 -4.3389E-02  2.5692E+02  0.0000E+00     1     2  3.5000E-01  6.5000E-01
time,fu0,fu1,fu =   2.2032E+06 -3.5633E-02 -1.4435E-02 -2.8214E-02  3.500000000000000E-01  6.500000000000000E-01
 cg2d: Sum(rhs),rhsMax =  -2.17666162871666E-13  8.05674080086255E+00
time,SST,SSS,fu,fv,Q,E-P,i0,i1,a,b =   2.2464E+06  4.1199E-01  3.4607E+01 -2.7860E-02 -4.2729E-02  2.5650E+02  0.0000E+00     1     2  3.6667E-01  6.3333E-01
time,fu0,fu1,fu =   2.2464E+06 -3.5633E-02 -1.4435E-02 -2.7860E-02  3.666666666666666E-01  6.333333333333333E-01
 cg2d: Sum(rhs),rhsMax =   4.81142903296927E-13  8.18299873665440E+00
time,SST,SSS,fu,fv,Q,E-P,i0,i1,a,b =   2.2896E+06  3.8715E-01  3.4602E+01 -2.7507E-02 -4.2069E-02  2.5608E+02  0.0000E+00     1     2  3.8333E-01  6.1667E-01
time,fu0,fu1,fu =   2.2896E+06 -3.5633E-02 -1.4435E-02 -2.7507E-02  3.833333333333334E-01  6.166666666666667E-01
 cg2d: Sum(rhs),rhsMax =   4.13176437508156E-13  9.40876932407817E+00
time,SST,SSS,fu,fv,Q,E-P,i0,i1,a,b =   2.3328E+06  3.6231E-01  3.4597E+01 -2.7154E-02 -4.1408E-02  2.5565E+02  0.0000E+00     1     2  4.0000E-01  6.0000E-01
time,fu0,fu1,fu =   2.3328E+06 -3.5633E-02 -1.4435E-02 -2.7154E-02  4.000000000000000E-01  6.000000000000000E-01
 cg2d: Sum(rhs),rhsMax =   3.24046345312468E-13  1.05293276777562E+01
time,SST,SSS,fu,fv,Q,E-P,i0,i1,a,b =   2.3760E+06  3.3747E-01  3.4592E+01 -2.6800E-02 -4.0748E-02  2.5523E+02  0.0000E+00     1     2  4.1667E-01  5.8333E-01
time,fu0,fu1,fu =   2.3760E+06 -3.5633E-02 -1.4435E-02 -2.6800E-02  4.166666666666667E-01  5.833333333333333E-01
 cg2d: Sum(rhs),rhsMax =   1.59652152609269E-12  1.15144709878764E+01
time,SST,SSS,fu,fv,Q,E-P,i0,i1,a,b =   2.4192E+06  3.1264E-01  3.4587E+01 -2.6447E-02 -4.0088E-02  2.5481E+02  0.0000E+00     1     2  4.3333E-01  5.6667E-01
time,fu0,fu1,fu =   2.4192E+06 -3.5633E-02 -1.4435E-02 -2.6447E-02  4.333333333333333E-01  5.666666666666667E-01
 cg2d: Sum(rhs),rhsMax =   1.34758176839611E-12  1.23395341345157E+01
time,SST,SSS,fu,fv,Q,E-P,i0,i1,a,b =   2.4624E+06  2.8780E-01  3.4582E+01 -2.6094E-02 -3.9427E-02  2.5439E+02  0.0000E+00     1     2  4.5000E-01  5.5000E-01
time,fu0,fu1,fu =   2.4624E+06 -3.5633E-02 -1.4435E-02 -2.6094E-02  4.500000000000000E-01  5.500000000000000E-01
 cg2d: Sum(rhs),rhsMax =   1.38020844753228E-12  1.29859652791804E+01
time,SST,SSS,fu,fv,Q,E-P,i0,i1,a,b =   2.5056E+06  2.6296E-01  3.4578E+01 -2.5740E-02 -3.8767E-02  2.5397E+02  0.0000E+00     1     2  4.6667E-01  5.3333E-01
time,fu0,fu1,fu =   2.5056E+06 -3.5633E-02 -1.4435E-02 -2.5740E-02  4.666666666666667E-01  5.333333333333333E-01
 cg2d: Sum(rhs),rhsMax =   1.84736947961284E-12  1.34416460208635E+01
time,SST,SSS,fu,fv,Q,E-P,i0,i1,a,b =   2.5488E+06  2.3812E-01  3.4573E+01 -2.5387E-02 -3.8106E-02  2.5355E+02  0.0000E+00     1     2  4.8333E-01  5.1667E-01
time,fu0,fu1,fu =   2.5488E+06 -3.5633E-02 -1.4435E-02 -2.5387E-02  4.833333333333333E-01  5.166666666666666E-01
 cg2d: Sum(rhs),rhsMax =   2.45307940627271E-12  1.37009638663432E+01
time,SST,SSS,fu,fv,Q,E-P,i0,i1,a,b =   2.5920E+06  2.1328E-01  3.4568E+01 -2.5034E-02 -3.7446E-02  2.5313E+02  0.0000E+00     1     2  5.0000E-01  5.0000E-01
time,fu0,fu1,fu =   2.5920E+06 -3.5633E-02 -1.4435E-02 -2.5034E-02  5.000000000000000E-01  5.000000000000000E-01
 cg2d: Sum(rhs),rhsMax =   2.36444197554420E-12  1.37646537303193E+01
time,SST,SSS,fu,fv,Q,E-P,i0,i1,a,b =   2.6352E+06  1.8845E-01  3.4563E+01 -2.4681E-02 -3.6786E-02  2.5270E+02  0.0000E+00     1     2  5.1667E-01  4.8333E-01
time,fu0,fu1,fu =   2.6352E+06 -3.5633E-02 -1.4435E-02 -2.4681E-02  5.166666666666667E-01  4.833333333333333E-01
 cg2d: Sum(rhs),rhsMax =   2.82933398931817E-12  1.36394322436377E+01
time,SST,SSS,fu,fv,Q,E-P,i0,i1,a,b =   2.6784E+06  1.6361E-01  3.4558E+01 -2.4327E-02 -3.6125E-02  2.5228E+02  0.0000E+00     1     2  5.3333E-01  4.6667E-01
time,fu0,fu1,fu =   2.6784E+06 -3.5633E-02 -1.4435E-02 -2.4327E-02  5.333333333333333E-01  4.666666666666667E-01
 cg2d: Sum(rhs),rhsMax =   2.89362284133787E-12  1.33374538688876E+01
time,SST,SSS,fu,fv,Q,E-P,i0,i1,a,b =   2.7216E+06  1.3877E-01  3.4553E+01 -2.3974E-02 -3.5465E-02  2.5186E+02  0.0000E+00     1     2  5.5000E-01  4.5000E-01
time,fu0,fu1,fu =   2.7216E+06 -3.5633E-02 -1.4435E-02 -2.3974E-02  5.500000000000000E-01  4.500000000000000E-01
 cg2d: Sum(rhs),rhsMax =   2.85577117509206E-12  1.28756213510657E+01
time,SST,SSS,fu,fv,Q,E-P,i0,i1,a,b =   2.7648E+06  1.1393E-01  3.4548E+01 -2.3621E-02 -3.4805E-02  2.5144E+02  0.0000E+00     1     2  5.6667E-01  4.3333E-01
time,fu0,fu1,fu =   2.7648E+06 -3.5633E-02 -1.4435E-02 -2.3621E-02  5.666666666666667E-01  4.333333333333333E-01
 cg2d: Sum(rhs),rhsMax =   3.63407914871772E-12  1.22747850526171E+01
time,SST,SSS,fu,fv,Q,E-P,i0,i1,a,b =   2.8080E+06  8.9094E-02  3.4543E+01 -2.3267E-02 -3.4144E-02  2.5102E+02  0.0000E+00     1     2  5.8333E-01  4.1667E-01
time,fu0,fu1,fu =   2.8080E+06 -3.5633E-02 -1.4435E-02 -2.3267E-02  5.833333333333334E-01  4.166666666666666E-01
 cg2d: Sum(rhs),rhsMax =   3.35338007362296E-12  1.15588664230174E+01
time,SST,SSS,fu,fv,Q,E-P,i0,i1,a,b =   2.8512E+06  6.4256E-02  3.4538E+01 -2.2914E-02 -3.3484E-02  2.5060E+02  0.0000E+00     1     2  6.0000E-01  4.0000E-01
time,fu0,fu1,fu =   2.8512E+06 -3.5633E-02 -1.4435E-02 -2.2914E-02  6.000000000000000E-01  4.000000000000000E-01
 cg2d: Sum(rhs),rhsMax =   3.63126195779273E-12  1.07539403988484E+01
time,SST,SSS,fu,fv,Q,E-P,i0,i1,a,b =   2.8944E+06  3.9418E-02  3.4534E+01 -2.2561E-02 -3.2824E-02  2.5018E+02  0.0000E+00     1     2  6.1667E-01  3.8333E-01
time,fu0,fu1,fu =   2.8944E+06 -3.5633E-02 -1.4435E-02 -2.2561E-02  6.166666666666667E-01  3.833333333333333E-01
 cg2d: Sum(rhs),rhsMax =   3.95186661172886E-12  9.88731006049129E+00
time,SST,SSS,fu,fv,Q,E-P,i0,i1,a,b =   2.9376E+06  1.4580E-02  3.4529E+01 -2.2207E-02 -3.2163E-02  2.4975E+02  0.0000E+00     1     2  6.3333E-01  3.6667E-01
time,fu0,fu1,fu =   2.9376E+06 -3.5633E-02 -1.4435E-02 -2.2207E-02  6.333333333333333E-01  3.666666666666667E-01
 cg2d: Sum(rhs),rhsMax =   3.81703002538814E-12  8.98660450467268E+00
time,SST,SSS,fu,fv,Q,E-P,i0,i1,a,b =   2.9808E+06 -1.0258E-02  3.4524E+01 -2.1854E-02 -3.1503E-02  2.4933E+02  0.0000E+00     1     2  6.5000E-01  3.5000E-01
time,fu0,fu1,fu =   2.9808E+06 -3.5633E-02 -1.4435E-02 -2.1854E-02  6.500000000000000E-01  3.500000000000000E-01
 cg2d: Sum(rhs),rhsMax =   3.71666586396202E-12  8.07892773764070E+00
time,SST,SSS,fu,fv,Q,E-P,i0,i1,a,b =   3.0240E+06 -3.5096E-02  3.4519E+01 -2.1501E-02 -3.0843E-02  2.4891E+02  0.0000E+00     1     2  6.6667E-01  3.3333E-01
time,fu0,fu1,fu =   3.0240E+06 -3.5633E-02 -1.4435E-02 -2.1501E-02  6.666666666666666E-01  3.333333333333334E-01
 cg2d: Sum(rhs),rhsMax =   3.39311911901063E-12  7.98205083991466E+00
time,SST,SSS,fu,fv,Q,E-P,i0,i1,a,b =   3.0672E+06 -5.9934E-02  3.4514E+01 -2.1147E-02 -3.0182E-02  2.4849E+02  0.0000E+00     1     2  6.8333E-01  3.1667E-01
time,fu0,fu1,fu =   3.0672E+06 -3.5633E-02 -1.4435E-02 -2.1147E-02  6.833333333333333E-01  3.166666666666667E-01
 cg2d: Sum(rhs),rhsMax =   2.70461431028934E-12  8.00388388981780E+00
time,SST,SSS,fu,fv,Q,E-P,i0,i1,a,b =   3.1104E+06 -8.4772E-02  3.4509E+01 -2.0794E-02 -2.9522E-02  2.4807E+02  0.0000E+00     1     2  7.0000E-01  3.0000E-01
time,fu0,fu1,fu =   3.1104E+06 -3.5633E-02 -1.4435E-02 -2.0794E-02  7.000000000000000E-01  3.000000000000000E-01
 cg2d: Sum(rhs),rhsMax =   3.20093951344802E-12  8.02911763578877E+00
time,SST,SSS,fu,fv,Q,E-P,i0,i1,a,b =   3.1536E+06 -1.0961E-01  3.4504E+01 -2.0441E-02 -2.8862E-02  2.4765E+02  0.0000E+00     1     2  7.1667E-01  2.8333E-01
time,fu0,fu1,fu =   3.1536E+06 -3.5633E-02 -1.4435E-02 -2.0441E-02  7.166666666666667E-01  2.833333333333333E-01
 cg2d: Sum(rhs),rhsMax =   3.14417242242016E-12  8.49105070553315E+00
time,SST,SSS,fu,fv,Q,E-P,i0,i1,a,b =   3.1968E+06 -1.3445E-01  3.4499E+01 -2.0088E-02 -2.8201E-02  2.4722E+02  0.0000E+00     1     2  7.3333E-01  2.6667E-01
time,fu0,fu1,fu =   3.1968E+06 -3.5633E-02 -1.4435E-02 -2.0088E-02  7.333333333333333E-01  2.666666666666667E-01
 cg2d: Sum(rhs),rhsMax =   2.59332832985848E-12  8.90375405844728E+00
time,SST,SSS,fu,fv,Q,E-P,i0,i1,a,b =   3.2400E+06 -1.5929E-01  3.4494E+01 -1.9734E-02 -2.7541E-02  2.4680E+02  0.0000E+00     1     2  7.5000E-01  2.5000E-01
time,fu0,fu1,fu =   3.2400E+06 -3.5633E-02 -1.4435E-02 -1.9734E-02  7.500000000000000E-01  2.500000000000000E-01
 cg2d: Sum(rhs),rhsMax =   2.42336706257618E-12  9.21995710952668E+00
time,SST,SSS,fu,fv,Q,E-P,i0,i1,a,b =   3.2832E+06 -1.8412E-01  3.4490E+01 -1.9381E-02 -2.6880E-02  2.4638E+02  0.0000E+00     1     2  7.6667E-01  2.3333E-01
time,fu0,fu1,fu =   3.2832E+06 -3.5633E-02 -1.4435E-02 -1.9381E-02  7.666666666666667E-01  2.333333333333333E-01
 cg2d: Sum(rhs),rhsMax =   2.45249653918478E-12  9.43408848348899E+00
time,SST,SSS,fu,fv,Q,E-P,i0,i1,a,b =   3.3264E+06 -2.0896E-01  3.4485E+01 -1.9028E-02 -2.6220E-02  2.4596E+02  0.0000E+00     1     2  7.8333E-01  2.1667E-01
time,fu0,fu1,fu =   3.3264E+06 -3.5633E-02 -1.4435E-02 -1.9028E-02  7.833333333333333E-01  2.166666666666667E-01
 cg2d: Sum(rhs),rhsMax =   2.84317708265647E-12  9.54305627953707E+00
time,SST,SSS,fu,fv,Q,E-P,i0,i1,a,b =   3.3696E+06 -2.3380E-01  3.4480E+01 -1.8674E-02 -2.5560E-02  2.4554E+02  0.0000E+00     1     2  8.0000E-01  2.0000E-01
time,fu0,fu1,fu =   3.3696E+06 -3.5633E-02 -1.4435E-02 -1.8674E-02  8.000000000000000E-01  2.000000000000000E-01
 cg2d: Sum(rhs),rhsMax =   2.68157024363447E-12  9.54625938484141E+00
time,SST,SSS,fu,fv,Q,E-P,i0,i1,a,b =   3.4128E+06 -2.5864E-01  3.4475E+01 -1.8321E-02 -2.4899E-02  2.4512E+02  0.0000E+00     1     2  8.1667E-01  1.8333E-01
time,fu0,fu1,fu =   3.4128E+06 -3.5633E-02 -1.4435E-02 -1.8321E-02  8.166666666666667E-01  1.833333333333333E-01
 cg2d: Sum(rhs),rhsMax =   2.35866187692224E-12  9.44553335306459E+00
time,SST,SSS,fu,fv,Q,E-P,i0,i1,a,b =   3.4560E+06 -2.8348E-01  3.4470E+01 -1.7968E-02 -2.4239E-02  2.4470E+02  0.0000E+00     1     2  8.3333E-01  1.6667E-01
time,fu0,fu1,fu =   3.4560E+06 -3.5633E-02 -1.4435E-02 -1.7968E-02  8.333333333333334E-01  1.666666666666666E-01
 cg2d: Sum(rhs),rhsMax =   2.80005879593759E-12  9.24503729971009E+00
time,SST,SSS,fu,fv,Q,E-P,i0,i1,a,b =   3.4992E+06 -3.0831E-01  3.4465E+01 -1.7614E-02 -2.3579E-02  2.4427E+02  0.0000E+00     1     2  8.5000E-01  1.5000E-01
time,fu0,fu1,fu =   3.4992E+06 -3.5633E-02 -1.4435E-02 -1.7614E-02  8.500000000000000E-01  1.500000000000000E-01
 cg2d: Sum(rhs),rhsMax =   2.76383083086529E-12  8.95108946330625E+00
time,SST,SSS,fu,fv,Q,E-P,i0,i1,a,b =   3.5424E+06 -3.3315E-01  3.4460E+01 -1.7261E-02 -2.2918E-02  2.4385E+02  0.0000E+00     1     2  8.6667E-01  1.3333E-01
time,fu0,fu1,fu =   3.5424E+06 -3.5633E-02 -1.4435E-02 -1.7261E-02  8.666666666666667E-01  1.333333333333333E-01
 cg2d: Sum(rhs),rhsMax =   2.83920109644953E-12  8.57195972313464E+00
time,SST,SSS,fu,fv,Q,E-P,i0,i1,a,b =   3.5856E+06 -3.5799E-01  3.4455E+01 -1.6908E-02 -2.2258E-02  2.4343E+02  0.0000E+00     1     2  8.8333E-01  1.1667E-01
time,fu0,fu1,fu =   3.5856E+06 -3.5633E-02 -1.4435E-02 -1.6908E-02  8.833333333333333E-01  1.166666666666667E-01
 cg2d: Sum(rhs),rhsMax =   3.22360194093818E-12  8.11762753154395E+00
time,SST,SSS,fu,fv,Q,E-P,i0,i1,a,b =   3.6288E+06 -3.8283E-01  3.4450E+01 -1.6555E-02 -2.1598E-02  2.4301E+02  0.0000E+00     1     2  9.0000E-01  1.0000E-01
time,fu0,fu1,fu =   3.6288E+06 -3.5633E-02 -1.4435E-02 -1.6555E-02  9.000000000000000E-01  9.999999999999998E-02
 cg2d: Sum(rhs),rhsMax =   4.52229920178127E-12  8.02199623444861E+00
time,SST,SSS,fu,fv,Q,E-P,i0,i1,a,b =   3.6720E+06 -4.0767E-01  3.4446E+01 -1.6201E-02 -2.0937E-02  2.4259E+02  0.0000E+00     1     2  9.1667E-01  8.3333E-02
time,fu0,fu1,fu =   3.6720E+06 -3.5633E-02 -1.4435E-02 -1.6201E-02  9.166666666666666E-01  8.333333333333337E-02
 cg2d: Sum(rhs),rhsMax =   4.23215629208329E-12  7.98965231734582E+00
time,SST,SSS,fu,fv,Q,E-P,i0,i1,a,b =   3.7152E+06 -4.3250E-01  3.4441E+01 -1.5848E-02 -2.0277E-02  2.4217E+02  0.0000E+00     1     2  9.3333E-01  6.6667E-02
time,fu0,fu1,fu =   3.7152E+06 -3.5633E-02 -1.4435E-02 -1.5848E-02  9.333333333333333E-01  6.666666666666665E-02
 cg2d: Sum(rhs),rhsMax =   4.31198132755384E-12  7.95826435852234E+00
time,SST,SSS,fu,fv,Q,E-P,i0,i1,a,b =   3.7584E+06 -4.5734E-01  3.4436E+01 -1.5495E-02 -1.9617E-02  2.4175E+02  0.0000E+00     1     2  9.5000E-01  5.0000E-02
time,fu0,fu1,fu =   3.7584E+06 -3.5633E-02 -1.4435E-02 -1.5495E-02  9.500000000000000E-01  5.000000000000004E-02
 cg2d: Sum(rhs),rhsMax =   4.54603021893263E-12  7.92999027071858E+00
time,SST,SSS,fu,fv,Q,E-P,i0,i1,a,b =   3.8016E+06 -4.8218E-01  3.4431E+01 -1.5141E-02 -1.8956E-02  2.4132E+02  0.0000E+00     1     2  9.6667E-01  3.3333E-02
time,fu0,fu1,fu =   3.8016E+06 -3.5633E-02 -1.4435E-02 -1.5141E-02  9.666666666666667E-01  3.333333333333333E-02
 cg2d: Sum(rhs),rhsMax =   4.21597479149938E-12  7.90697491218471E+00
time,SST,SSS,fu,fv,Q,E-P,i0,i1,a,b =   3.8448E+06 -5.0702E-01  3.4426E+01 -1.4788E-02 -1.8296E-02  2.4090E+02  0.0000E+00     1     2  9.8333E-01  1.6667E-02
time,fu0,fu1,fu =   3.8448E+06 -3.5633E-02 -1.4435E-02 -1.4788E-02  9.833333333333333E-01  1.666666666666672E-02
 cg2d: Sum(rhs),rhsMax =   5.02285713022133E-12  7.89125118750031E+00
S/R EXTERNAL_FIELDS_LOAD: Reading new data:    2    3        90  3.888000000000E+06
(PID.TID 0000.0001)  MDSREADFIELD: opening global file: trenberth_taux.bin
(PID.TID 0000.0001)  MDSREADFIELD: opening global file: trenberth_taux.bin
(PID.TID 0000.0001)  MDSREADFIELD: opening global file: trenberth_tauy.bin
(PID.TID 0000.0001)  MDSREADFIELD: opening global file: trenberth_tauy.bin
(PID.TID 0000.0001)  MDSREADFIELD: opening global file: ncep_qnet.bin
(PID.TID 0000.0001)  MDSREADFIELD: opening global file: ncep_qnet.bin
(PID.TID 0000.0001)  MDSREADFIELD: opening global file: lev_sst.bin
(PID.TID 0000.0001)  MDSREADFIELD: opening global file: lev_sst.bin
(PID.TID 0000.0001)  MDSREADFIELD: opening global file: lev_sss.bin
(PID.TID 0000.0001)  MDSREADFIELD: opening global file: lev_sss.bin
time,SST,SSS,fu,fv,Q,E-P,i0,i1,a,b =   3.8880E+06 -5.3186E-01  3.4421E+01 -1.4435E-02 -1.7636E-02  2.4048E+02  0.0000E+00     2     3  0.0000E+00  1.0000E+00
time,fu0,fu1,fu =   3.8880E+06 -1.4435E-02 -2.7199E-02 -1.4435E-02  0.000000000000000E+00  1.000000000000000E+00
 cg2d: Sum(rhs),rhsMax =   4.27842483663454E-12  7.88464124063305E+00
time,SST,SSS,fu,fv,Q,E-P,i0,i1,a,b =   3.9312E+06 -5.2606E-01  3.4424E+01 -1.4647E-02 -1.7351E-02  2.4006E+02  0.0000E+00     2     3  1.6667E-02  9.8333E-01
time,fu0,fu1,fu =   3.9312E+06 -1.4435E-02 -2.7199E-02 -1.4647E-02  1.666666666666667E-02  9.833333333333333E-01
 cg2d: Sum(rhs),rhsMax =   3.92817722794092E-12  8.18557490432067E+00
time,SST,SSS,fu,fv,Q,E-P,i0,i1,a,b =   3.9744E+06 -5.2026E-01  3.4426E+01 -1.4860E-02 -1.7067E-02  2.3964E+02  0.0000E+00     2     3  3.3333E-02  9.6667E-01
time,fu0,fu1,fu =   3.9744E+06 -1.4435E-02 -2.7199E-02 -1.4860E-02  3.333333333333333E-02  9.666666666666667E-01
 cg2d: Sum(rhs),rhsMax =   4.21344903411836E-12  8.65937275246093E+00
time,SST,SSS,fu,fv,Q,E-P,i0,i1,a,b =   4.0176E+06 -5.1446E-01  3.4429E+01 -1.5073E-02 -1.6783E-02  2.3923E+02  0.0000E+00     2     3  5.0000E-02  9.5000E-01
time,fu0,fu1,fu =   4.0176E+06 -1.4435E-02 -2.7199E-02 -1.5073E-02  5.000000000000000E-02  9.500000000000000E-01
 cg2d: Sum(rhs),rhsMax =   3.98551330826891E-12  9.08149152290095E+00
time,SST,SSS,fu,fv,Q,E-P,i0,i1,a,b =   4.0608E+06 -5.0866E-01  3.4432E+01 -1.5286E-02 -1.6498E-02  2.3881E+02  0.0000E+00     2     3  6.6667E-02  9.3333E-01
time,fu0,fu1,fu =   4.0608E+06 -1.4435E-02 -2.7199E-02 -1.5286E-02  6.666666666666667E-02  9.333333333333333E-01
 cg2d: Sum(rhs),rhsMax =   3.54101470367851E-12  9.44424371681617E+00
time,SST,SSS,fu,fv,Q,E-P,i0,i1,a,b =   4.1040E+06 -5.0286E-01  3.4434E+01 -1.5498E-02 -1.6214E-02  2.3839E+02  0.0000E+00     2     3  8.3333E-02  9.1667E-01
time,fu0,fu1,fu =   4.1040E+06 -1.4435E-02 -2.7199E-02 -1.5498E-02  8.333333333333333E-02  9.166666666666666E-01
 cg2d: Sum(rhs),rhsMax =   3.09386544161683E-12  9.74175924730620E+00
time,SST,SSS,fu,fv,Q,E-P,i0,i1,a,b =   4.1472E+06 -4.9706E-01  3.4437E+01 -1.5711E-02 -1.5930E-02  2.3797E+02  0.0000E+00     2     3  1.0000E-01  9.0000E-01
time,fu0,fu1,fu =   4.1472E+06 -1.4435E-02 -2.7199E-02 -1.5711E-02  1.000000000000000E-01  9.000000000000000E-01
 cg2d: Sum(rhs),rhsMax =   2.83995049699115E-12  9.97004082339821E+00
time,SST,SSS,fu,fv,Q,E-P,i0,i1,a,b =   4.1904E+06 -4.9126E-01  3.4440E+01 -1.5924E-02 -1.5646E-02  2.3755E+02  0.0000E+00     2     3  1.1667E-01  8.8333E-01
time,fu0,fu1,fu =   4.1904E+06 -1.4435E-02 -2.7199E-02 -1.5924E-02  1.166666666666667E-01  8.833333333333333E-01
 cg2d: Sum(rhs),rhsMax =   3.56985274674315E-12  1.01269752668598E+01
time,SST,SSS,fu,fv,Q,E-P,i0,i1,a,b =   4.2336E+06 -4.8546E-01  3.4442E+01 -1.6137E-02 -1.5361E-02  2.3714E+02  0.0000E+00     2     3  1.3333E-01  8.6667E-01
time,fu0,fu1,fu =   4.2336E+06 -1.4435E-02 -2.7199E-02 -1.6137E-02  1.333333333333333E-01  8.666666666666667E-01
 cg2d: Sum(rhs),rhsMax =   2.55724608155816E-12  1.02123016653092E+01
time,SST,SSS,fu,fv,Q,E-P,i0,i1,a,b =   4.2768E+06 -4.7966E-01  3.4445E+01 -1.6349E-02 -1.5077E-02  2.3672E+02  0.0000E+00     2     3  1.5000E-01  8.5000E-01
time,fu0,fu1,fu =   4.2768E+06 -1.4435E-02 -2.7199E-02 -1.6349E-02  1.500000000000000E-01  8.500000000000000E-01
 cg2d: Sum(rhs),rhsMax =   2.86131535132128E-12  1.02275379812657E+01
time,SST,SSS,fu,fv,Q,E-P,i0,i1,a,b =   4.3200E+06 -4.7386E-01  3.4447E+01 -1.6562E-02 -1.4793E-02  2.3630E+02  0.0000E+00     2     3  1.6667E-01  8.3333E-01
time,fu0,fu1,fu =   4.3200E+06 -1.4435E-02 -2.7199E-02 -1.6562E-02  1.666666666666667E-01  8.333333333333334E-01
 cg2d: Sum(rhs),rhsMax =   2.66409810878443E-12  1.01758685031678E+01
time,SST,SSS,fu,fv,Q,E-P,i0,i1,a,b =   4.3632E+06 -4.6807E-01  3.4450E+01 -1.6775E-02 -1.4508E-02  2.3588E+02  0.0000E+00     2     3  1.8333E-01  8.1667E-01
time,fu0,fu1,fu =   4.3632E+06 -1.4435E-02 -2.7199E-02 -1.6775E-02  1.833333333333333E-01  8.166666666666667E-01
 cg2d: Sum(rhs),rhsMax =   2.69679417685964E-12  1.00619953070919E+01
time,SST,SSS,fu,fv,Q,E-P,i0,i1,a,b =   4.4064E+06 -4.6227E-01  3.4453E+01 -1.6988E-02 -1.4224E-02  2.3546E+02  0.0000E+00     2     3  2.0000E-01  8.0000E-01
time,fu0,fu1,fu =   4.4064E+06 -1.4435E-02 -2.7199E-02 -1.6988E-02  2.000000000000000E-01  8.000000000000000E-01
 cg2d: Sum(rhs),rhsMax =   2.50276882551859E-12  9.89195767401348E+00
time,SST,SSS,fu,fv,Q,E-P,i0,i1,a,b =   4.4496E+06 -4.5647E-01  3.4455E+01 -1.7200E-02 -1.3940E-02  2.3505E+02  0.0000E+00     2     3  2.1667E-01  7.8333E-01
time,fu0,fu1,fu =   4.4496E+06 -1.4435E-02 -2.7199E-02 -1.7200E-02  2.166666666666667E-01  7.833333333333333E-01
 cg2d: Sum(rhs),rhsMax =   2.24768814671705E-12  9.67292415442821E+00
time,SST,SSS,fu,fv,Q,E-P,i0,i1,a,b =   4.4928E+06 -4.5067E-01  3.4458E+01 -1.7413E-02 -1.3655E-02  2.3463E+02  0.0000E+00     2     3  2.3333E-01  7.6667E-01
time,fu0,fu1,fu =   4.4928E+06 -1.4435E-02 -2.7199E-02 -1.7413E-02  2.333333333333333E-01  7.666666666666666E-01
 cg2d: Sum(rhs),rhsMax =   2.69437250288718E-12  9.41296266298265E+00
time,SST,SSS,fu,fv,Q,E-P,i0,i1,a,b =   4.5360E+06 -4.4487E-01  3.4461E+01 -1.7626E-02 -1.3371E-02  2.3421E+02  0.0000E+00     2     3  2.5000E-01  7.5000E-01
time,fu0,fu1,fu =   4.5360E+06 -1.4435E-02 -2.7199E-02 -1.7626E-02  2.500000000000000E-01  7.500000000000000E-01
 cg2d: Sum(rhs),rhsMax =   2.57849297469193E-12  9.12079458669747E+00
time,SST,SSS,fu,fv,Q,E-P,i0,i1,a,b =   4.5792E+06 -4.3907E-01  3.4463E+01 -1.7838E-02 -1.3087E-02  2.3379E+02  0.0000E+00     2     3  2.6667E-01  7.3333E-01
time,fu0,fu1,fu =   4.5792E+06 -1.4435E-02 -2.7199E-02 -1.7838E-02  2.666666666666667E-01  7.333333333333334E-01
 cg2d: Sum(rhs),rhsMax =   2.56408783094741E-12  8.86256530307648E+00
time,SST,SSS,fu,fv,Q,E-P,i0,i1,a,b =   4.6224E+06 -4.3327E-01  3.4466E+01 -1.8051E-02 -1.2803E-02  2.3337E+02  0.0000E+00     2     3  2.8333E-01  7.1667E-01
time,fu0,fu1,fu =   4.6224E+06 -1.4435E-02 -2.7199E-02 -1.8051E-02  2.833333333333333E-01  7.166666666666667E-01
 cg2d: Sum(rhs),rhsMax =   3.16915244047422E-12  8.89641365610583E+00
time,SST,SSS,fu,fv,Q,E-P,i0,i1,a,b =   4.6656E+06 -4.2747E-01  3.4469E+01 -1.8264E-02 -1.2518E-02  2.3296E+02  0.0000E+00     2     3  3.0000E-01  7.0000E-01
time,fu0,fu1,fu =   4.6656E+06 -1.4435E-02 -2.7199E-02 -1.8264E-02  3.000000000000000E-01  7.000000000000000E-01
 cg2d: Sum(rhs),rhsMax =   2.43995795790042E-12  8.91497204910884E+00
time,SST,SSS,fu,fv,Q,E-P,i0,i1,a,b =   4.7088E+06 -4.2167E-01  3.4471E+01 -1.8477E-02 -1.2234E-02  2.3254E+02  0.0000E+00     2     3  3.1667E-01  6.8333E-01
time,fu0,fu1,fu =   4.7088E+06 -1.4435E-02 -2.7199E-02 -1.8477E-02  3.166666666666667E-01  6.833333333333333E-01
 cg2d: Sum(rhs),rhsMax =   2.24278234872699E-12  8.91793953034709E+00
time,SST,SSS,fu,fv,Q,E-P,i0,i1,a,b =   4.7520E+06 -4.1587E-01  3.4474E+01 -1.8689E-02 -1.1950E-02  2.3212E+02  0.0000E+00     2     3  3.3333E-01  6.6667E-01
time,fu0,fu1,fu =   4.7520E+06 -1.4435E-02 -2.7199E-02 -1.8689E-02  3.333333333333333E-01  6.666666666666667E-01
 cg2d: Sum(rhs),rhsMax =   2.67841998580209E-12  8.90561082396095E+00
time,SST,SSS,fu,fv,Q,E-P,i0,i1,a,b =   4.7952E+06 -4.1007E-01  3.4476E+01 -1.8902E-02 -1.1665E-02  2.3170E+02  0.0000E+00     2     3  3.5000E-01  6.5000E-01
time,fu0,fu1,fu =   4.7952E+06 -1.4435E-02 -2.7199E-02 -1.8902E-02  3.500000000000000E-01  6.500000000000000E-01
 cg2d: Sum(rhs),rhsMax =   2.25199026093748E-12  8.87885341253076E+00
time,SST,SSS,fu,fv,Q,E-P,i0,i1,a,b =   4.8384E+06 -4.0427E-01  3.4479E+01 -1.9115E-02 -1.1381E-02  2.3128E+02  0.0000E+00     2     3  3.6667E-01  6.3333E-01
time,fu0,fu1,fu =   4.8384E+06 -1.4435E-02 -2.7199E-02 -1.9115E-02  3.666666666666666E-01  6.333333333333333E-01
 cg2d: Sum(rhs),rhsMax =   2.32847074954634E-12  8.83905906881253E+00
time,SST,SSS,fu,fv,Q,E-P,i0,i1,a,b =   4.8816E+06 -3.9848E-01  3.4482E+01 -1.9328E-02 -1.1097E-02  2.3087E+02  0.0000E+00     2     3  3.8333E-01  6.1667E-01
time,fu0,fu1,fu =   4.8816E+06 -1.4435E-02 -2.7199E-02 -1.9328E-02  3.833333333333334E-01  6.166666666666667E-01
 cg2d: Sum(rhs),rhsMax =   2.49400500251795E-12  8.78807261219078E+00
time,SST,SSS,fu,fv,Q,E-P,i0,i1,a,b =   4.9248E+06 -3.9268E-01  3.4484E+01 -1.9540E-02 -1.0813E-02  2.3045E+02  0.0000E+00     2     3  4.0000E-01  6.0000E-01
time,fu0,fu1,fu =   4.9248E+06 -1.4435E-02 -2.7199E-02 -1.9540E-02  4.000000000000000E-01  6.000000000000000E-01
 cg2d: Sum(rhs),rhsMax =   2.24123497538642E-12  8.72810182645582E+00
time,SST,SSS,fu,fv,Q,E-P,i0,i1,a,b =   4.9680E+06 -3.8688E-01  3.4487E+01 -1.9753E-02 -1.0528E-02  2.3003E+02  0.0000E+00     2     3  4.1667E-01  5.8333E-01
time,fu0,fu1,fu =   4.9680E+06 -1.4435E-02 -2.7199E-02 -1.9753E-02  4.166666666666667E-01  5.833333333333333E-01
 cg2d: Sum(rhs),rhsMax =   1.85271242791885E-12  8.66161353067292E+00
time,SST,SSS,fu,fv,Q,E-P,i0,i1,a,b =   5.0112E+06 -3.8108E-01  3.4490E+01 -1.9966E-02 -1.0244E-02  2.2961E+02  0.0000E+00     2     3  4.3333E-01  5.6667E-01
time,fu0,fu1,fu =   5.0112E+06 -1.4435E-02 -2.7199E-02 -1.9966E-02  4.333333333333333E-01  5.666666666666667E-01
 cg2d: Sum(rhs),rhsMax =   2.72985800631176E-12  8.59122144868936E+00
time,SST,SSS,fu,fv,Q,E-P,i0,i1,a,b =   5.0544E+06 -3.7528E-01  3.4492E+01 -2.0179E-02 -9.9597E-03  2.2919E+02  0.0000E+00     2     3  4.5000E-01  5.5000E-01
time,fu0,fu1,fu =   5.0544E+06 -1.4435E-02 -2.7199E-02 -2.0179E-02  4.500000000000000E-01  5.500000000000000E-01
 cg2d: Sum(rhs),rhsMax =   2.51096365921910E-12  8.77527674681796E+00
time,SST,SSS,fu,fv,Q,E-P,i0,i1,a,b =   5.0976E+06 -3.6948E-01  3.4495E+01 -2.0391E-02 -9.6754E-03  2.2877E+02  0.0000E+00     2     3  4.6667E-01  5.3333E-01
time,fu0,fu1,fu =   5.0976E+06 -1.4435E-02 -2.7199E-02 -2.0391E-02  4.666666666666667E-01  5.333333333333333E-01
 cg2d: Sum(rhs),rhsMax =   1.61690105748846E-12  9.00166222387621E+00
time,SST,SSS,fu,fv,Q,E-P,i0,i1,a,b =   5.1408E+06 -3.6368E-01  3.4497E+01 -2.0604E-02 -9.3911E-03  2.2836E+02  0.0000E+00     2     3  4.8333E-01  5.1667E-01
time,fu0,fu1,fu =   5.1408E+06 -1.4435E-02 -2.7199E-02 -2.0604E-02  4.833333333333333E-01  5.166666666666666E-01
 cg2d: Sum(rhs),rhsMax =   1.53049795059701E-12  9.15305691520549E+00
 --> objf_test(bi,bj)   =  0.000000000000000E+00
 --> objf_tracer(bi,bj) =  0.000000000000000E+00
 --> objf_atl(bi,bj)    = -0.114865708652975E+00
  local fc = -0.114865708652975E+00
 global fc = -0.114865708652975E+00
 ph-check fcpertplus =  -0.114865709
(PID.TID 0000.0001)  MDSREADFIELD: opening file: xx_theta.0000000000.001.001.data
 ph-check fcpertminus =  -0.114865705
(PID.TID 0000.0001)  MDSREADFIELD: opening file: xx_theta.0000000000.001.001.data
(PID.TID 0000.0001)  MDSREADFIELD: opening global file: bathymetry.bin
(PID.TID 0000.0001) // =======================================================
(PID.TID 0000.0001) // Field Model R_low (ini_masks_etc) at iteration          1
(PID.TID 0000.0001) // CMIN =         -5.200000000000000E+03
(PID.TID 0000.0001) // CMAX =         -1.200000000000000E+02
(PID.TID 0000.0001) // CINT =          1.881481481481482E+02
(PID.TID 0000.0001) // SYMBOLS (CMIN->CMAX): -abcdefghijklmnopqrstuvwxyz+
(PID.TID 0000.0001) //                  0.0: .
(PID.TID 0000.0001) // RANGE I (Lo:Hi:Step):(  -2:  93:   1)
(PID.TID 0000.0001) // RANGE J (Lo:Hi:Step):(  43:  -2:  -1)
(PID.TID 0000.0001) // RANGE K (Lo:Hi:Step):(   1:   1:   1)
(PID.TID 0000.0001) // =======================================================
(PID.TID 0000.0001) K =   1
(PID.TID 0000.0001) //                I=7       I=17      I=27      I=37      I=47      I=57      I=67      I=77      I=87
(PID.TID 0000.0001) // |--J--|210123456|890123456|890123456|890123456|890123456|890123456|890123456|890123456|890123456|890123
(PID.TID 0000.0001) //     43 ................................................................................................
(PID.TID 0000.0001) //     42 .............................................zyxxmgfeeefefgimnpwwwy..+zyy.....yyyyoiiihhz+......
(PID.TID 0000.0001) //     41 ................................................................................................
(PID.TID 0000.0001) //     40 +qlloqz+.++++zzz++++++..................................................................+++qlloq
(PID.TID 0000.0001) //     39 uslloorzzzzzzzzz+...++.....................................................yxxz........+zvuslloo
(PID.TID 0000.0001) //     38 smqpporzzzzzz+++...........................................................zxxy+......zyyvsmqppo
(PID.TID 0000.0001) //     37 smmmuz..................................................................++...zy+...yttyy.+smmmuz
(PID.TID 0000.0001) //     36 yutt+.........................................mm++....................+++++++znmm.yoowssvuyutt+.
(PID.TID 0000.0001) //     35 w++++.................................+zzz..rrmmkk+...+gghn...........+++....+nmiijlsoopuww++++.
(PID.TID 0000.0001) //     34 +.....................................+vvy.ggqyxv+y.ccdffhim..................+nihhikkihhm+.....
(PID.TID 0000.0001) //     33 w+.....................................uuz---h------aaabdefin+.................zqvddflifffw+....
(PID.TID 0000.0001) //     32 m+.....................................+t----h---------acdfgnn................+++gdffkofffm+....
(PID.TID 0000.0001) //     31 m......................................-----ad--------abddegil..............qbaafccdhqqgddm.....
(PID.TID 0000.0001) //     30 i.....................................f----b--b------------abd............zfbb--fbcdosjfddi.....
(PID.TID 0000.0001) //     29 i...................................tu----e---fjg----------abdf...........eaac--abfmijaadgi.....
(PID.TID 0000.0001) //     28 z.................................+xfl-------------------bdedefi.........qbaa---aemfbbaaejz.....
(PID.TID 0000.0001) //     27 .................xx..............+wfgfpf--------eallc---bbbccefgi...+++x.qb-----akfa---ah.......
(PID.TID 0000.0001) //     26 .................xnn...........+vd---dna------a--aicfna---aabdfghku.++xssuy-----bgca---ci.......
(PID.TID 0000.0001) //     25 .................iiik...oo+...+ivd---doaa-bc--ilglf--aa---aabcghhkll...ssum+xaaacjbaabdjk.......
(PID.TID 0000.0001) //     24 ...............xnheeft.kkk+...uii.aagdm----aa-----a-------bbbcdefjljjju.zummwwbbchba--abi.......
(PID.TID 0000.0001) //     23 ...............xgheefp.iikw...uuw..fihi----fed-----eaaa--bbbbcdfflkjiiiq....zykccefa--abd.......
(PID.TID 0000.0001) //     22 quss...........bbelffslffkk...zz.wqkeeqoheccdfa-----egabaabcdddegghliiiqq......xeeehheehccquss..
(PID.TID 0000.0001) //     21 cbbeir........nbbcdjhqdddiiz.....wqfeelgghmedea-----bibbcddddddefghklnqoo........ieeflhgcccbbeir
(PID.TID 0000.0001) //     20 cbbder.......ldcccdgkccccidd......z.vkkktqqhegg----aaacddddddddefghkiiijl.........nhfa--gfcbbder
(PID.TID 0000.0001) //     19 hcdaaf.......kddosggpaaaibbccx...+z+.....r+nlec---agaaabcddccddefikfgffff...........d---cjhcdaaf
(PID.TID 0000.0001) //     18 hd---d.......kglggvliaaaibbcaaeaiv++...qqzolhecccfdgkaabcdfccdeeikgfgffdd+..........d---djhd---d
(PID.TID 0000.0001) //     17 hc---c.......l.feewlfaaaoaa----aiv.....qqnllslmlofcdbaacceffffhhligfigeddj.........hd---ckhc---c
(PID.TID 0000.0001) //     16 gba--c......tn.ddgnlfdaaqa-----lv.......vnllvllnwv--accivomfffhilhgfffeddjf........re--aeigba--c
(PID.TID 0000.0001) //     15 fb--dpz....+ll.ccdfhmdddlc----av.........otsxoomv---abccddfihgijkhgfffeejfff......+fd---ckfb--dp
(PID.TID 0000.0001) //     14 fc--mcl....weeqbaafilkfend--eagy.........hhstofft----aacdheefijkmjhhjijiffff.....zlfdaaadlfc--mc
(PID.TID 0000.0001) //     13 hcclbbg....nccobaaiddgkffqrqeaal.........eeutqfft------aaceeffhijlkjhhigfffq....+jgfodccflhcclbb
(PID.TID 0000.0001) //     12 hhgaaacw+iiicclemhdddfliigfdcaabfaaaz....ccsurqpc--------abcifffikiiihhggff.....kbbbdfffglhhgaaa
(PID.TID 0000.0001) //     11 kgcaaacbbifccennhbbdefnihgfdccaaaa----..dcccnt.ncab-------aabcdfilhggjiggff....l---abcefjlkgcaaa
(PID.TID 0000.0001) //     10 kfcaaccbdaacfrllfbbdegkmmljhfdddba----d.dcccfx.nyrebaba----abcdgilhfeegijgi..+w--aa-abcfilkfcaac
(PID.TID 0000.0001) //      9 lffcdcccaaaoqsolfdeehikihhlllgfedcccccdmdcccf.vyfaaaaaaaa--abdehmjhfeeefglv.++w-----abcdfklffcdc
(PID.TID 0000.0001) //      8 liffjklcaafddffeeccvznkfffhhhlkjifgjkkfeeddfsyvcaaaaaaccdcccdfgjligedbbceg+.++xffn--cfddefliffjk
(PID.TID 0000.0001) //      7 hmqnnbbkkf--bmbaabbgtykfddeffeeddccdfhlffeelfbaaaaaacddeghgjgjlligeddaaabedfiiiiiisvkfkecchmqnnb
(PID.TID 0000.0001) //      6 cca-------------aabcelttdddedddddccccdfkkiiffbaaaabcdgimmkmefecaaabbbaaabbdfiiiiispmmregifcca---
(PID.TID 0000.0001) //      5 --------a-------aaccehhhiddeddddddcccdfiikomodddefffmlmigedccaaaaaaaababbbdfiijsqgeccccbaa------
(PID.TID 0000.0001) //      4 --ahebaabbbbbeihffgijiiiijpywnnpokkomkiiijmmmolkommmgffeeedccaaaaaabbcccefhmz..yjgeccccbaa--aheb
(PID.TID 0000.0001) //      3 gffhhrpjiiwyy............................yxotmjjjjgfeeeeeeddeffffheddeghjkyy..yqjgeddccdbbgffhhr
(PID.TID 0000.0001) //      2 .............................................zyxxmgfeeefefgimnpwwwy..+zyy.....yyyyoiiihhz+......
(PID.TID 0000.0001) //      1 ................................................................................................
(PID.TID 0000.0001) //      0 +qlloqz+.++++zzz++++++..................................................................+++qlloq
(PID.TID 0000.0001) //     -1 uslloorzzzzzzzzz+...++.....................................................yxxz........+zvuslloo
(PID.TID 0000.0001) //     -2 ................................................................................................
(PID.TID 0000.0001) // =======================================================
(PID.TID 0000.0001) // END OF FIELD                                          =
(PID.TID 0000.0001) // =======================================================
(PID.TID 0000.0001) 
(PID.TID 0000.0001) // =======================================================
(PID.TID 0000.0001) // Field Model Ro_surf (ini_masks_etc) at iteration          1
(PID.TID 0000.0001) // CMIN =          1.000000000000000E+32
(PID.TID 0000.0001) // CMAX =         -1.000000000000000E+32
(PID.TID 0000.0001) // CINT =          0.000000000000000E+00
(PID.TID 0000.0001) // SYMBOLS (CMIN->CMAX): -abcdefghijklmnopqrstuvwxyz+
(PID.TID 0000.0001) //                  0.0: .
(PID.TID 0000.0001) // RANGE I (Lo:Hi:Step):(  -2:  93:   1)
(PID.TID 0000.0001) // RANGE J (Lo:Hi:Step):(  43:  -2:  -1)
(PID.TID 0000.0001) // RANGE K (Lo:Hi:Step):(   1:   1:   1)
(PID.TID 0000.0001) // =======================================================
(PID.TID 0000.0001) // =======================================================
(PID.TID 0000.0001) // END OF FIELD                                          =
(PID.TID 0000.0001) // =======================================================
(PID.TID 0000.0001) 
(PID.TID 0000.0001) // =======================================================
(PID.TID 0000.0001) // Field hFacC at iteration          1
(PID.TID 0000.0001) // CMIN =          1.000000000000000E+00
(PID.TID 0000.0001) // CMAX =          1.000000000000000E+00
(PID.TID 0000.0001) // CINT =          0.000000000000000E+00
(PID.TID 0000.0001) // SYMBOLS (CMIN->CMAX): -abcdefghijklmnopqrstuvwxyz+
(PID.TID 0000.0001) //                  0.0: .
(PID.TID 0000.0001) // RANGE I (Lo:Hi:Step):(  -2:  93:   1)
(PID.TID 0000.0001) // RANGE J (Lo:Hi:Step):(  43:  -2:  -1)
(PID.TID 0000.0001) // RANGE K (Lo:Hi:Step):(   1:   1:   1)
(PID.TID 0000.0001) // =======================================================
(PID.TID 0000.0001) // =======================================================
(PID.TID 0000.0001) // END OF FIELD                                          =
(PID.TID 0000.0001) // =======================================================
(PID.TID 0000.0001) 
(PID.TID 0000.0001) // =======================================================
(PID.TID 0000.0001) // Field hFacW at iteration          1
(PID.TID 0000.0001) // CMIN =          1.000000000000000E+00
(PID.TID 0000.0001) // CMAX =          1.000000000000000E+00
(PID.TID 0000.0001) // CINT =          0.000000000000000E+00
(PID.TID 0000.0001) // SYMBOLS (CMIN->CMAX): -abcdefghijklmnopqrstuvwxyz+
(PID.TID 0000.0001) //                  0.0: .
(PID.TID 0000.0001) // RANGE I (Lo:Hi:Step):(  -2:  93:   1)
(PID.TID 0000.0001) // RANGE J (Lo:Hi:Step):(  43:  -2:  -1)
(PID.TID 0000.0001) // RANGE K (Lo:Hi:Step):(   1:   1:   1)
(PID.TID 0000.0001) // =======================================================
(PID.TID 0000.0001) // =======================================================
(PID.TID 0000.0001) // END OF FIELD                                          =
(PID.TID 0000.0001) // =======================================================
(PID.TID 0000.0001) 
(PID.TID 0000.0001) // =======================================================
(PID.TID 0000.0001) // Field hFacS at iteration          1
(PID.TID 0000.0001) // CMIN =          1.000000000000000E+00
(PID.TID 0000.0001) // CMAX =          1.000000000000000E+00
(PID.TID 0000.0001) // CINT =          0.000000000000000E+00
(PID.TID 0000.0001) // SYMBOLS (CMIN->CMAX): -abcdefghijklmnopqrstuvwxyz+
(PID.TID 0000.0001) //                  0.0: .
(PID.TID 0000.0001) // RANGE I (Lo:Hi:Step):(  -2:  93:   1)
(PID.TID 0000.0001) // RANGE J (Lo:Hi:Step):(  43:  -2:  -1)
(PID.TID 0000.0001) // RANGE K (Lo:Hi:Step):(   1:   1:   1)
(PID.TID 0000.0001) // =======================================================
(PID.TID 0000.0001) // =======================================================
(PID.TID 0000.0001) // END OF FIELD                                          =
(PID.TID 0000.0001) // =======================================================
(PID.TID 0000.0001) 
(PID.TID 0000.0001) %MON g__g_vcflfCori_max           =   1.4226580169407E-04
(PID.TID 0000.0001) %MON g__g_vcflfCori_min           =  -1.4226580169407E-04
(PID.TID 0000.0001) %MON g__g_vcflfCori_mean          =   7.5291817533716E-23
(PID.TID 0000.0001) %MON g__g_vcflfCori_sd            =   9.6335367303778E-05
(PID.TID 0000.0001) %MON g__g_vcflfCoriG_max          =   1.4112379284621E-04
(PID.TID 0000.0001) %MON g__g_vcflfCoriG_min          =  -1.4323448157692E-04
(PID.TID 0000.0001) %MON g__g_vcflfCoriG_mean         =  -3.6726790147928E-06
(PID.TID 0000.0001) %MON g__g_vcflfCoriG_sd           =   9.7510077443652E-05
(PID.TID 0000.0001) %MON g__g_vcflfCoriCos_max        =   1.4535550371427E-04
(PID.TID 0000.0001) %MON g__g_vcflfCoriCos_min        =   3.0239529651320E-05
(PID.TID 0000.0001) %MON g__g_vcflfCoriCos_mean       =   1.0260497651149E-04
(PID.TID 0000.0001) %MON g__g_vcflfCoriCos_sd         =   3.6683828681187E-05
(PID.TID 0000.0001) INI_CG2D: CG2D normalisation factor =  6.5682677425711703E-05
(PID.TID 0000.0001) 
(PID.TID 0000.0001)  MDSREADFIELD: opening global file: lev_t.bin
(PID.TID 0000.0001) // =======================================================
(PID.TID 0000.0001) // Field Initial Temperature at iteration          1
(PID.TID 0000.0001) // CMIN =         -1.900000000000000E+00
(PID.TID 0000.0001) // CMAX =          2.973338890075684E+01
(PID.TID 0000.0001) // CINT =          1.171606996324327E+00
(PID.TID 0000.0001) // SYMBOLS (CMIN->CMAX): -abcdefghijklmnopqrstuvwxyz+
(PID.TID 0000.0001) //                  0.0: .
(PID.TID 0000.0001) // RANGE I (Lo:Hi:Step):(   1:  90:   1)
(PID.TID 0000.0001) // RANGE J (Lo:Hi:Step):(  40:   1:  -1)
(PID.TID 0000.0001) // RANGE K (Lo:Hi:Step):(   1:   1:   1)
(PID.TID 0000.0001) // =======================================================
(PID.TID 0000.0001) K =   1
(PID.TID 0000.0001)                I=10      I=20      I=30      I=40      I=50      I=60      I=70      I=80      I=90
(PID.TID 0000.0001) |--J--|123456789|123456789|123456789|123456789|123456789|123456789|123456789|123456789|123456789|
(PID.TID 0000.0001)     40 bccdd.baa----abdedd..................................................................bbbbb
(PID.TID 0000.0001)     39 ccdddddccbbbaa...ed.....................................................----........bbbbbb
(PID.TID 0000.0001)     38 fffgfedeedddc...........................................................-----......cbbbcde
(PID.TID 0000.0001)     37 ghh..................................................................bc...bbc...edeed.defg
(PID.TID 0000.0001)     36 hh.........................................ddcb....................dcccbabccdd.eefghhihhih
(PID.TID 0000.0001)     35 hh.................................aaab..dddeddd...ffggg...........ccc....ddeeeffghijjjjih
(PID.TID 0000.0001)     34 ...................................babb.deeeeeee.ffffgghh..................ccdffghijkkkj..
(PID.TID 0000.0001)     33 ....................................accdddeeeeefffffgghhiii.................bcfijkkllllkk.
(PID.TID 0000.0001)     32 ....................................bdddeffgffgghhhhhiiijjj................dccglmnmmmmlll.
(PID.TID 0000.0001)     31 ....................................fghiiiijjjjjjkkkkklllkk..............ikkjjmooooonnmm..
(PID.TID 0000.0001)     30 ...................................mmmnmmmmmmmmmmmmmnnnnnmm............moqrrrqrqqqpppooo..
(PID.TID 0000.0001)     29 .................................pqqqqqpppppppppoppoppppponm...........ssssssrrrrrqqqqpp..
(PID.TID 0000.0001)     28 ...............................prssssrrrsssrrrrrrrrrrrrrqqpoo.........uttssstssrssrrrqqq..
(PID.TID 0000.0001)     27 ..............vv..............stuttuuuuutuuuuuuuuuuttttssrrqqq...stuu.vvvuuuuutttttsss....
(PID.TID 0000.0001)     26 ..............vvv...........uuvvvvvwwwwwwwwvvvvvvvvvuuutttsssttv.uuvxxwwwwwwvvvvuuttsr....
(PID.TID 0000.0001)     25 ..............wwwx...xxx...vvvxxxxxyyxxxxxxxxxwwwwwvvvvvuuuuuvwwx...xxxxxxwwwwwwvvutsr....
(PID.TID 0000.0001)     24 ............wwwwxyy.xxyy...wxx.yyyyyyyyyyyxxxxxxxxwwwwwwwvvwwxxyywww.xxxxxxxxxxwwwvvur....
(PID.TID 0000.0001)     23 ............xxxyyyz.xyyy...xxx..yyyyzzyyyyyyyyxxxxxxxxxwwwwwxxxwwwwwx....vwxxxxwwwwwvu....
(PID.TID 0000.0001)     22 w...........xxyyyzyyyyyz...xx.yyzzzzzzzzzzzzzyyzyyyyyyxxwwxxxxwvvvwwxw......yyyyxxxxxxwxxw
(PID.TID 0000.0001)     21 xxx........xxxxyyzzzzzzz+.....zyzzzzzzz++zzzzyyyyyyyyxxwvvwwwwvvvvvvvu........yyyyyyyyyxxx
(PID.TID 0000.0001)     20 xww.......xyyyyxyyzzzzzz+......z.zzzzz+++zzzzzzyyyyyxxxxwvwxwvuuuuuuut.........yyyyxxxxwww
(PID.TID 0000.0001)     19 vvv.......yyyyxwwxyzyyzzzzz...zzz.....++++++z++z+zzzyyyyxxxxwwvvvvvvvu...........yyxxxwwww
(PID.TID 0000.0001)     18 uut.......zzyyywwxyzyyyyzzyzzzzzz...z+z++++zz+++++++zzzyyyyxxwwwvvvvvtt..........yyxxwvvwv
(PID.TID 0000.0001)     17 uus.......z.yyyyyyxyzzyyyyyyyzz.....yzzzzzzzzzzzzzzzzzzyyyyxxwwvuuvvuut.........yyyxxwttvu
(PID.TID 0000.0001)     16 utr......yy.zyyyyxxxxxxxwxxxxy.......yyyyyyyyyyyyyyyyyyyyyyyxxwvvvuuutts........xyyyxwvuuu
(PID.TID 0000.0001)     15 ttrr....xxx.xxxwxwwwwvwwvvvww.........xwxxxxxxxxxxxxxxxxxyyyxwwwvvuttssrr......wxxxxxwwvuu
(PID.TID 0000.0001)     14 ttsq....xyxwwxwvwwwvutuuuuuuu.........wwvwwwwvwvvwwwvwvvwwwwwwvvvuuutssrr.....vwwwwwwwvvvu
(PID.TID 0000.0001)     13 tttr....wwwvvvtttuuuutttssttt.........vvvuuuuuuutttttuuuuuvwwwuuuttttssrr....uvvvvvvvvvvut
(PID.TID 0000.0001)     12 sssssstttutssssrrrrrstrqqrrssqqrrq....uuttssssrrrrrrrrrrrstttssssrssrrqp.....uuuttssttssss
(PID.TID 0000.0001)     11 poprsssrqqqqqrqppooopqpoppppppppppp..sssrrr.rqpppqqqqppppqqqoppqqqqrqqpp....prsrqqqqqppppq
(PID.TID 0000.0001)     10 lllmoooonmnnmnnnnmmmmmmlmmlllmnnnnon.qqqppp.ppppppooooooooonmnnnonnooooo..nmoponnmnnnnnmll
(PID.TID 0000.0001)      9 ihhiiiihhhhhhiiihiiiiihhhiiiijjkkmnllnnnnn.mmmmnnnnmmmmnnmmlklllllklllll.mllmmllkjiijjihhi
(PID.TID 0000.0001)      8 eeeeeeeedefgggffeeffggffffggghiiiijjijklklkkkkkkkklllkkkkjjiiijkjjjjjjkj.kkjjiihggffffedde
(PID.TID 0000.0001)      7 cccccddeedddefeddddddddddefeefffffgggghiiiiiijjjihhgggghhhhhghhhhhhhiiiihiihhgfeddddddcccc
(PID.TID 0000.0001)      6 abbcccddcccccdddddccdddddddccddddddeeeeffggggghhgeddddddeeeeeeefggggghggggffeedccbbbbbbbba
(PID.TID 0000.0001)      5 bbbcccccccccccccccccccccbbccccdddddddcccddeeddeedcbbbbbbccccccdddeeeeeddddddccbbbbaaaaaaab
(PID.TID 0000.0001)      4 bbbbbbbaaabbbbbbbbbbbbaabbabbbbcbbbbbbbbbbbbbbbbbbbabbaaabbbbbbbbbbbbbbbbb..a--aaabbbaaabb
(PID.TID 0000.0001)      3 bbbbaaa-a-............................bbaaaaaaaaaaaaaaaaaaaaaaaaaaaaaaaab..aaaaaaaabbbaaaa
(PID.TID 0000.0001)      2 ..........................................baaaaaaaaaaaa-------aa..aaaa.....aaaaaaaaaaaa...
(PID.TID 0000.0001)      1 ..........................................................................................
(PID.TID 0000.0001) // =======================================================
(PID.TID 0000.0001) // END OF FIELD                                          =
(PID.TID 0000.0001) // =======================================================
(PID.TID 0000.0001) 
(PID.TID 0000.0001)  MDSREADFIELD: opening global file: lev_s.bin
(PID.TID 0000.0001) // =======================================================
(PID.TID 0000.0001) // Field Initial Salinity at iteration          1
(PID.TID 0000.0001) // CMIN =          2.975276947021484E+01
(PID.TID 0000.0001) // CMAX =          3.747562789916992E+01
(PID.TID 0000.0001) // CINT =          2.860317936650029E-01
(PID.TID 0000.0001) // SYMBOLS (CMIN->CMAX): -abcdefghijklmnopqrstuvwxyz+
(PID.TID 0000.0001) //                  0.0: .
(PID.TID 0000.0001) // RANGE I (Lo:Hi:Step):(   1:  90:   1)
(PID.TID 0000.0001) // RANGE J (Lo:Hi:Step):(  40:   1:  -1)
(PID.TID 0000.0001) // RANGE K (Lo:Hi:Step):(   1:   1:   1)
(PID.TID 0000.0001) // =======================================================
(PID.TID 0000.0001) K =   1
(PID.TID 0000.0001)                I=10      I=20      I=30      I=40      I=50      I=60      I=70      I=80      I=90
(PID.TID 0000.0001) |--J--|123456789|123456789|123456789|123456789|123456789|123456789|123456789|123456789|123456789|
(PID.TID 0000.0001)     40 qrrrr.oonnooopqtutt..................................................................mnnop
(PID.TID 0000.0001)     39 rssrrrrrrrqqpn...ut.....................................................mmmm........opqqqr
(PID.TID 0000.0001)     38 ssrrqqqqrrqpo...........................................................lkkll......onoqrrs
(PID.TID 0000.0001)     37 ssr..................................................................hg...lln...qppqr.rrrs
(PID.TID 0000.0001)     36 rr.........................................lkji....................feeegikmoop.pqrssssssss
(PID.TID 0000.0001)     35 rr.................................kkkk..lllllki...jijjj...........aa-....opqrrrrrrrssttss
(PID.TID 0000.0001)     34 ...................................jlll.kklllllk.ijkkkjih..................hlpqrqrrsstts..
(PID.TID 0000.0001)     33 ....................................iklkkkkkkkkkjkkjjjjjjii.................jmprrsstttttt.
(PID.TID 0000.0001)     32 ....................................iklllkllllllllkkkkkkkji................gilpstuuttuuut.
(PID.TID 0000.0001)     31 ....................................lmnonnnnoooonnmmmmllkjj..............loopqtvvvuuuuuu..
(PID.TID 0000.0001)     30 ...................................pppppppqqqqpppoooonnmlkk............ptvxwwvvwvvvvvvvu..
(PID.TID 0000.0001)     29 .................................pqqrqqqqqqrrrqqppqqqpponmll...........vxxxxxxwwwwwxwwxw..
(PID.TID 0000.0001)     28 ...............................prrrrrqqrrrrrsrrsrssssssrqonmm.........wxxxxxxxyyyyyyyyxx..
(PID.TID 0000.0001)     27 ..............xx..............prrrrrrrrrssssssstttssssssrqpoop...uwww.wwxxxyyy++zzzzyy....
(PID.TID 0000.0001)     26 ..............wxx...........ppqrrrrrrsssrrstsstttssrrrrrrrqppqqp.wwwvvwwwwwxyy+++zzyxw....
(PID.TID 0000.0001)     25 ..............wxxv...kkk...ooopqrrrrrssrrrrrrrssssqqpppppppppppoo...vvutuuvvwxyyyxxvvu....
(PID.TID 0000.0001)     24 ............uvvwwur.lmlk...nmm.pqqqqrrrrrqqqqrrqqrpppppooooonmmmnooo.uuuuuuttuvvvuvuut....
(PID.TID 0000.0001)     23 ............vvuvtqp.lmml...mln..ppppqpqppppppqpppppppppqppponnnnnoopm....xvuuuvvvvuuut....
(PID.TID 0000.0001)     22 r...........vuttsqqpnppn...mm.oppqqrrqqqqqqppppqqrrrqqqrrppppoopooomjj......uuvvvvvuttssrr
(PID.TID 0000.0001)     21 qmm........ttsssssssrsqon.....opqqqqqqqrrrrqqqssssssrrrrrrrrpqqqppomll........tvvvvuttssrr
(PID.TID 0000.0001)     20 sqq.......sttssrrsrrrrpol......p.qrqpqrrrrrrrstttttsssrrsssrqrrrrqqqpo.........wwwvvvuuutt
(PID.TID 0000.0001)     19 tsr.......ssssrrrrpppppnmmm...oqq.....qrqqsrrstttuuuttssttssrrssrrrrqq...........wwwvuvvvv
(PID.TID 0000.0001)     18 wut.......ssrrrrrqppppppppoooorrr...poqqqprrrttttuuutuuuuuutttttttutsss..........yyxwwxwxx
(PID.TID 0000.0001)     17 wwu.......s.rrrrrrqppppqqqqqqqr.....rrsrqrsssuusrtuuuvvvwwvvvuuuuutttss.........xyzyyyyxxx
(PID.TID 0000.0001)     16 vvt......ss.qrrssrqrqpqrrrrrrr.......ssrrstsstusrsuuuvwwwwxxwwvvvuttttsr........yz+zzzxwww
(PID.TID 0000.0001)     15 utss....stt.rrssstttsrrsrstsr.........ssstttssttsuuttuvvvvwxwwwwwuttsssrr......xyyyyxyyxwv
(PID.TID 0000.0001)     14 utts....sstrrssstuuuuuuuuuutt.........stttuutttttttuttttttuvvvvvvutsrqrrr.....vxxwwwwxwvwv
(PID.TID 0000.0001)     13 uuut....ttttttttuuuuuvtuuuuuu.........ttttuutttttttuutsssstttttstsqrqqppp....uwwwvuvvvutvv
(PID.TID 0000.0001)     12 ttttttttttttttttttttttssuuuuutuuut....tttttttttttsssssrrrrrrrqqqqqppppoo.....rvvuuttttttuu
(PID.TID 0000.0001)     11 rqsttttttttuuttttsssssrrstttttttsss..ttttts.tsssrrrrqqqqqppppoonnooooooo....oruttttsssrqrs
(PID.TID 0000.0001)     10 pppqrssrqqrqpqrssrrqqqqqqrrrrrrrrrrs.sssssr.rssrrqqpppppppooooonnnoooonn..moqrrrqqqqqqqqqq
(PID.TID 0000.0001)      9 oonooooooooonnnooooooooooppppppqqqqqrrrqrq.pppqqqqqppppppppppoooooooooll.lmoqqqqppooooopoo
(PID.TID 0000.0001)      8 nnnoonooooooonnnnnnnoooonoonoooppopqqqqqqqppopppqqqpppppppppppppppooopon.lnopppoooonnnnooo
(PID.TID 0000.0001)      7 ooooooooooopponnnooooooonnnnnonnooooooooopppppppoooooooooopppppppppoopqnnmnoooonnnonnnnnno
(PID.TID 0000.0001)      6 oooonnoonnnnooooooooooooonnnnnnnnnnnnnnnnoooopppooooooooooooooppppppppppoooooooonnnnnmnnnn
(PID.TID 0000.0001)      5 oooonnnnnnnnnnnnnnnnnoooooonnnnnnonnnnnnnnnoooooooooooonnnnnnooooooopoooonoooonnnnnnnooooo
(PID.TID 0000.0001)      4 oooonnnooonnnnnnnnnnnnnnoooooonnnooooonnnooooooooppponnnnmmmnnnnmnnoonnnnn..nnnooooooooooo
(PID.TID 0000.0001)      3 ooonnnnnnn............................nnoooooonnooooonnnnnnnoonnnnnnnnmmm..ooopooooooooooo
(PID.TID 0000.0001)      2 ..........................................pppooooonnnnnnoooppppo..nnnn.....qqqpppoooooo...
(PID.TID 0000.0001)      1 ..........................................................................................
(PID.TID 0000.0001) // =======================================================
(PID.TID 0000.0001) // END OF FIELD                                          =
(PID.TID 0000.0001) // =======================================================
(PID.TID 0000.0001) 
(PID.TID 0000.0001) Start initial hydrostatic pressure computation
(PID.TID 0000.0001) Pressure is predetermined for buoyancyRelation OCEANIC
(PID.TID 0000.0001) 
(PID.TID 0000.0001)  MDSREADFIELD: opening file: xx_theta.0000000000.001.001.data
(PID.TID 0000.0001)  MDSREADFIELD: opening file: xx_salt.0000000000.001.001.data
(PID.TID 0000.0001)  MDSREADFIELD: opening file: xx_diffkr.0000000000.001.001.data
(PID.TID 0000.0001)  MDSREADFIELD: opening global file: trenberth_taux.bin
(PID.TID 0000.0001)  MDSREADFIELD: opening global file: trenberth_tauy.bin
(PID.TID 0000.0001)  MDSREADFIELD: opening global file: ncep_qnet.bin
(PID.TID 0000.0001)  MDSREADFIELD: opening global file: lev_sst.bin
(PID.TID 0000.0001)  MDSREADFIELD: opening global file: lev_sss.bin
(PID.TID 0000.0001) // =======================================================
(PID.TID 0000.0001) // Model current state
(PID.TID 0000.0001) // =======================================================
(PID.TID 0000.0001) 
S/R EXTERNAL_FIELDS_LOAD: Reading new data:   12    1         0  0.000000000000E+00
(PID.TID 0000.0001)  MDSREADFIELD: opening global file: trenberth_taux.bin
(PID.TID 0000.0001)  MDSREADFIELD: opening global file: trenberth_taux.bin
(PID.TID 0000.0001)  MDSREADFIELD: opening global file: trenberth_tauy.bin
(PID.TID 0000.0001)  MDSREADFIELD: opening global file: trenberth_tauy.bin
(PID.TID 0000.0001)  MDSREADFIELD: opening global file: ncep_qnet.bin
(PID.TID 0000.0001)  MDSREADFIELD: opening global file: ncep_qnet.bin
(PID.TID 0000.0001)  MDSREADFIELD: opening global file: lev_sst.bin
(PID.TID 0000.0001)  MDSREADFIELD: opening global file: lev_sst.bin
(PID.TID 0000.0001)  MDSREADFIELD: opening global file: lev_sss.bin
(PID.TID 0000.0001)  MDSREADFIELD: opening global file: lev_sss.bin
time,SST,SSS,fu,fv,Q,E-P,i0,i1,a,b =   0.0000E+00  5.3151E-02  3.4364E+01 -4.0500E-02 -6.3753E-02  2.6510E+02  0.0000E+00    12     1  5.0000E-01  5.0000E-01
time,fu0,fu1,fu =   0.0000E+00 -4.5368E-02 -3.5633E-02 -4.0500E-02  5.000000000000000E-01  5.000000000000000E-01
(PID.TID 0000.0001)  MDSREADFIELD: opening file: xx_tauu.0000000000.001.001.data
(PID.TID 0000.0001)  MDSREADFIELD: opening file: xx_tauv.0000000000.001.001.data
(PID.TID 0000.0001)  MDSREADFIELD: opening file: xx_sflux.0000000000.001.001.data
(PID.TID 0000.0001)  MDSREADFIELD: opening file: xx_hflux.0000000000.001.001.data
 cg2d: Sum(rhs),rhsMax =  -5.41233724504764E-16  2.53364304519873E+00
time,SST,SSS,fu,fv,Q,E-P,i0,i1,a,b =   4.3200E+04  8.3327E-02  3.4375E+01 -4.0338E-02 -6.3536E-02  2.6512E+02  0.0000E+00    12     1  5.1667E-01  4.8333E-01
time,fu0,fu1,fu =   4.3200E+04 -4.5368E-02 -3.5633E-02 -4.0338E-02  5.166666666666667E-01  4.833333333333333E-01
 cg2d: Sum(rhs),rhsMax =   4.57828219779799E-14  5.05307478634997E+00
time,SST,SSS,fu,fv,Q,E-P,i0,i1,a,b =   8.6400E+04  1.1350E-01  3.4387E+01 -4.0176E-02 -6.3320E-02  2.6514E+02  0.0000E+00    12     1  5.3333E-01  4.6667E-01
time,fu0,fu1,fu =   8.6400E+04 -4.5368E-02 -3.5633E-02 -4.0176E-02  5.333333333333333E-01  4.666666666666667E-01
 cg2d: Sum(rhs),rhsMax =   9.12568631772359E-14  6.32564766002464E+00
time,SST,SSS,fu,fv,Q,E-P,i0,i1,a,b =   1.2960E+05  1.4368E-01  3.4399E+01 -4.0014E-02 -6.3103E-02  2.6516E+02  0.0000E+00    12     1  5.5000E-01  4.5000E-01
time,fu0,fu1,fu =   1.2960E+05 -4.5368E-02 -3.5633E-02 -4.0014E-02  5.500000000000000E-01  4.500000000000000E-01
 cg2d: Sum(rhs),rhsMax =   9.44452849260813E-14  6.76202107413721E+00
time,SST,SSS,fu,fv,Q,E-P,i0,i1,a,b =   1.7280E+05  1.7385E-01  3.4410E+01 -3.9851E-02 -6.2886E-02  2.6519E+02  0.0000E+00    12     1  5.6667E-01  4.3333E-01
time,fu0,fu1,fu =   1.7280E+05 -4.5368E-02 -3.5633E-02 -3.9851E-02  5.666666666666667E-01  4.333333333333333E-01
 cg2d: Sum(rhs),rhsMax =   2.40207159718508E-14  6.91128535917368E+00
time,SST,SSS,fu,fv,Q,E-P,i0,i1,a,b =   2.1600E+05  2.0403E-01  3.4422E+01 -3.9689E-02 -6.2670E-02  2.6521E+02  0.0000E+00    12     1  5.8333E-01  4.1667E-01
time,fu0,fu1,fu =   2.1600E+05 -4.5368E-02 -3.5633E-02 -3.9689E-02  5.833333333333334E-01  4.166666666666666E-01
 cg2d: Sum(rhs),rhsMax =  -1.17955992195995E-13  6.96038704691244E+00
time,SST,SSS,fu,fv,Q,E-P,i0,i1,a,b =   2.5920E+05  2.3421E-01  3.4434E+01 -3.9527E-02 -6.2453E-02  2.6523E+02  0.0000E+00    12     1  6.0000E-01  4.0000E-01
time,fu0,fu1,fu =   2.5920E+05 -4.5368E-02 -3.5633E-02 -3.9527E-02  6.000000000000000E-01  4.000000000000000E-01
 cg2d: Sum(rhs),rhsMax =   9.87708179134295E-15  7.26221759046286E+00
time,SST,SSS,fu,fv,Q,E-P,i0,i1,a,b =   3.0240E+05  2.6438E-01  3.4446E+01 -3.9365E-02 -6.2237E-02  2.6525E+02  0.0000E+00    12     1  6.1667E-01  3.8333E-01
time,fu0,fu1,fu =   3.0240E+05 -4.5368E-02 -3.5633E-02 -3.9365E-02  6.166666666666667E-01  3.833333333333333E-01
 cg2d: Sum(rhs),rhsMax =  -1.32285621259193E-13  7.87499194900246E+00
time,SST,SSS,fu,fv,Q,E-P,i0,i1,a,b =   3.4560E+05  2.9456E-01  3.4457E+01 -3.9202E-02 -6.2020E-02  2.6528E+02  0.0000E+00    12     1  6.3333E-01  3.6667E-01
time,fu0,fu1,fu =   3.4560E+05 -4.5368E-02 -3.5633E-02 -3.9202E-02  6.333333333333333E-01  3.666666666666667E-01
 cg2d: Sum(rhs),rhsMax =  -3.18497398593687E-13  8.21213972807563E+00
time,SST,SSS,fu,fv,Q,E-P,i0,i1,a,b =   3.8880E+05  3.2473E-01  3.4469E+01 -3.9040E-02 -6.1804E-02  2.6530E+02  0.0000E+00    12     1  6.5000E-01  3.5000E-01
time,fu0,fu1,fu =   3.8880E+05 -4.5368E-02 -3.5633E-02 -3.9040E-02  6.500000000000000E-01  3.500000000000000E-01
 cg2d: Sum(rhs),rhsMax =  -3.41125565295197E-13  8.31512136376637E+00
time,SST,SSS,fu,fv,Q,E-P,i0,i1,a,b =   4.3200E+05  3.5491E-01  3.4481E+01 -3.8878E-02 -6.1587E-02  2.6532E+02  0.0000E+00    12     1  6.6667E-01  3.3333E-01
time,fu0,fu1,fu =   4.3200E+05 -4.5368E-02 -3.5633E-02 -3.8878E-02  6.666666666666666E-01  3.333333333333334E-01
 cg2d: Sum(rhs),rhsMax =  -5.99284510904852E-13  8.25257067290293E+00
time,SST,SSS,fu,fv,Q,E-P,i0,i1,a,b =   4.7520E+05  3.8508E-01  3.4492E+01 -3.8716E-02 -6.1371E-02  2.6534E+02  0.0000E+00    12     1  6.8333E-01  3.1667E-01
time,fu0,fu1,fu =   4.7520E+05 -4.5368E-02 -3.5633E-02 -3.8716E-02  6.833333333333333E-01  3.166666666666667E-01
 cg2d: Sum(rhs),rhsMax =  -6.40413069796786E-13  8.09293762885829E+00
time,SST,SSS,fu,fv,Q,E-P,i0,i1,a,b =   5.1840E+05  4.1526E-01  3.4504E+01 -3.8553E-02 -6.1154E-02  2.6537E+02  0.0000E+00    12     1  7.0000E-01  3.0000E-01
time,fu0,fu1,fu =   5.1840E+05 -4.5368E-02 -3.5633E-02 -3.8553E-02  7.000000000000000E-01  3.000000000000000E-01
 cg2d: Sum(rhs),rhsMax =  -7.24004189933680E-13  8.55637530605071E+00
time,SST,SSS,fu,fv,Q,E-P,i0,i1,a,b =   5.6160E+05  4.4544E-01  3.4516E+01 -3.8391E-02 -6.0938E-02  2.6539E+02  0.0000E+00    12     1  7.1667E-01  2.8333E-01
time,fu0,fu1,fu =   5.6160E+05 -4.5368E-02 -3.5633E-02 -3.8391E-02  7.166666666666667E-01  2.833333333333333E-01
 cg2d: Sum(rhs),rhsMax =  -6.48862907848269E-13  9.25214403713225E+00
time,SST,SSS,fu,fv,Q,E-P,i0,i1,a,b =   6.0480E+05  4.7561E-01  3.4527E+01 -3.8229E-02 -6.0721E-02  2.6541E+02  0.0000E+00    12     1  7.3333E-01  2.6667E-01
time,fu0,fu1,fu =   6.0480E+05 -4.5368E-02 -3.5633E-02 -3.8229E-02  7.333333333333333E-01  2.666666666666667E-01
 cg2d: Sum(rhs),rhsMax =  -6.80988251899883E-13  9.75412758742916E+00
time,SST,SSS,fu,fv,Q,E-P,i0,i1,a,b =   6.4800E+05  5.0579E-01  3.4539E+01 -3.8067E-02 -6.0505E-02  2.6543E+02  0.0000E+00    12     1  7.5000E-01  2.5000E-01
time,fu0,fu1,fu =   6.4800E+05 -4.5368E-02 -3.5633E-02 -3.8067E-02  7.500000000000000E-01  2.500000000000000E-01
 cg2d: Sum(rhs),rhsMax =  -6.84469841916169E-13  1.00472791850534E+01
time,SST,SSS,fu,fv,Q,E-P,i0,i1,a,b =   6.9120E+05  5.3596E-01  3.4551E+01 -3.7904E-02 -6.0288E-02  2.6546E+02  0.0000E+00    12     1  7.6667E-01  2.3333E-01
time,fu0,fu1,fu =   6.9120E+05 -4.5368E-02 -3.5633E-02 -3.7904E-02  7.666666666666667E-01  2.333333333333333E-01
 cg2d: Sum(rhs),rhsMax =  -1.15850211368507E-12  1.01282964952822E+01
time,SST,SSS,fu,fv,Q,E-P,i0,i1,a,b =   7.3440E+05  5.6614E-01  3.4563E+01 -3.7742E-02 -6.0072E-02  2.6548E+02  0.0000E+00    12     1  7.8333E-01  2.1667E-01
time,fu0,fu1,fu =   7.3440E+05 -4.5368E-02 -3.5633E-02 -3.7742E-02  7.833333333333333E-01  2.166666666666667E-01
 cg2d: Sum(rhs),rhsMax =  -1.04538426526357E-12  1.00066236471322E+01
time,SST,SSS,fu,fv,Q,E-P,i0,i1,a,b =   7.7760E+05  5.9632E-01  3.4574E+01 -3.7580E-02 -5.9855E-02  2.6550E+02  0.0000E+00    12     1  8.0000E-01  2.0000E-01
time,fu0,fu1,fu =   7.7760E+05 -4.5368E-02 -3.5633E-02 -3.7580E-02  8.000000000000000E-01  2.000000000000000E-01
 cg2d: Sum(rhs),rhsMax =  -9.64220023269569E-13  9.70409645617080E+00
time,SST,SSS,fu,fv,Q,E-P,i0,i1,a,b =   8.2080E+05  6.2649E-01  3.4586E+01 -3.7418E-02 -5.9638E-02  2.6552E+02  0.0000E+00    12     1  8.1667E-01  1.8333E-01
time,fu0,fu1,fu =   8.2080E+05 -4.5368E-02 -3.5633E-02 -3.7418E-02  8.166666666666667E-01  1.833333333333333E-01
 cg2d: Sum(rhs),rhsMax =  -1.01705623090087E-12  9.47667283578007E+00
time,SST,SSS,fu,fv,Q,E-P,i0,i1,a,b =   8.6400E+05  6.5667E-01  3.4598E+01 -3.7255E-02 -5.9422E-02  2.6555E+02  0.0000E+00    12     1  8.3333E-01  1.6667E-01
time,fu0,fu1,fu =   8.6400E+05 -4.5368E-02 -3.5633E-02 -3.7255E-02  8.333333333333334E-01  1.666666666666666E-01
 cg2d: Sum(rhs),rhsMax =  -9.11397693426075E-13  1.03748401635910E+01
time,SST,SSS,fu,fv,Q,E-P,i0,i1,a,b =   9.0720E+05  6.8684E-01  3.4609E+01 -3.7093E-02 -5.9205E-02  2.6557E+02  0.0000E+00    12     1  8.5000E-01  1.5000E-01
time,fu0,fu1,fu =   9.0720E+05 -4.5368E-02 -3.5633E-02 -3.7093E-02  8.500000000000000E-01  1.500000000000000E-01
 cg2d: Sum(rhs),rhsMax =  -9.54156892385427E-13  1.11482726022294E+01
time,SST,SSS,fu,fv,Q,E-P,i0,i1,a,b =   9.5040E+05  7.1702E-01  3.4621E+01 -3.6931E-02 -5.8989E-02  2.6559E+02  0.0000E+00    12     1  8.6667E-01  1.3333E-01
time,fu0,fu1,fu =   9.5040E+05 -4.5368E-02 -3.5633E-02 -3.6931E-02  8.666666666666667E-01  1.333333333333333E-01
 cg2d: Sum(rhs),rhsMax =  -8.57414833577153E-13  1.17644190526996E+01
time,SST,SSS,fu,fv,Q,E-P,i0,i1,a,b =   9.9360E+05  7.4719E-01  3.4633E+01 -3.6769E-02 -5.8772E-02  2.6561E+02  0.0000E+00    12     1  8.8333E-01  1.1667E-01
time,fu0,fu1,fu =   9.9360E+05 -4.5368E-02 -3.5633E-02 -3.6769E-02  8.833333333333333E-01  1.166666666666667E-01
 cg2d: Sum(rhs),rhsMax =  -6.07651082229488E-13  1.21959720875444E+01
time,SST,SSS,fu,fv,Q,E-P,i0,i1,a,b =   1.0368E+06  7.7737E-01  3.4644E+01 -3.6606E-02 -5.8556E-02  2.6564E+02  0.0000E+00    12     1  9.0000E-01  1.0000E-01
time,fu0,fu1,fu =   1.0368E+06 -4.5368E-02 -3.5633E-02 -3.6606E-02  9.000000000000000E-01  9.999999999999998E-02
 cg2d: Sum(rhs),rhsMax =  -8.23997120535935E-13  1.24221987652449E+01
time,SST,SSS,fu,fv,Q,E-P,i0,i1,a,b =   1.0800E+06  8.0755E-01  3.4656E+01 -3.6444E-02 -5.8339E-02  2.6566E+02  0.0000E+00    12     1  9.1667E-01  8.3333E-02
time,fu0,fu1,fu =   1.0800E+06 -4.5368E-02 -3.5633E-02 -3.6444E-02  9.166666666666666E-01  8.333333333333337E-02
 cg2d: Sum(rhs),rhsMax =  -1.07931892590063E-12  1.24298971531250E+01
time,SST,SSS,fu,fv,Q,E-P,i0,i1,a,b =   1.1232E+06  8.3772E-01  3.4668E+01 -3.6282E-02 -5.8123E-02  2.6568E+02  0.0000E+00    12     1  9.3333E-01  6.6667E-02
time,fu0,fu1,fu =   1.1232E+06 -4.5368E-02 -3.5633E-02 -3.6282E-02  9.333333333333333E-01  6.666666666666665E-02
 cg2d: Sum(rhs),rhsMax =  -1.04499742192843E-12  1.22139653314615E+01
time,SST,SSS,fu,fv,Q,E-P,i0,i1,a,b =   1.1664E+06  8.6790E-01  3.4679E+01 -3.6120E-02 -5.7906E-02  2.6570E+02  0.0000E+00    12     1  9.5000E-01  5.0000E-02
time,fu0,fu1,fu =   1.1664E+06 -4.5368E-02 -3.5633E-02 -3.6120E-02  9.500000000000000E-01  5.000000000000004E-02
 cg2d: Sum(rhs),rhsMax =  -1.07744022037615E-12  1.17775992285544E+01
time,SST,SSS,fu,fv,Q,E-P,i0,i1,a,b =   1.2096E+06  8.9807E-01  3.4691E+01 -3.5957E-02 -5.7690E-02  2.6573E+02  0.0000E+00    12     1  9.6667E-01  3.3333E-02
time,fu0,fu1,fu =   1.2096E+06 -4.5368E-02 -3.5633E-02 -3.5957E-02  9.666666666666667E-01  3.333333333333333E-02
 cg2d: Sum(rhs),rhsMax =  -1.18429918649632E-12  1.11321543548089E+01
time,SST,SSS,fu,fv,Q,E-P,i0,i1,a,b =   1.2528E+06  9.2825E-01  3.4703E+01 -3.5795E-02 -5.7473E-02  2.6575E+02  0.0000E+00    12     1  9.8333E-01  1.6667E-02
time,fu0,fu1,fu =   1.2528E+06 -4.5368E-02 -3.5633E-02 -3.5795E-02  9.833333333333333E-01  1.666666666666672E-02
 cg2d: Sum(rhs),rhsMax =  -1.23828031162176E-12  1.02967139424964E+01
S/R EXTERNAL_FIELDS_LOAD: Reading new data:    1    2        30  1.296000000000E+06
(PID.TID 0000.0001)  MDSREADFIELD: opening global file: trenberth_taux.bin
(PID.TID 0000.0001)  MDSREADFIELD: opening global file: trenberth_taux.bin
(PID.TID 0000.0001)  MDSREADFIELD: opening global file: trenberth_tauy.bin
(PID.TID 0000.0001)  MDSREADFIELD: opening global file: trenberth_tauy.bin
(PID.TID 0000.0001)  MDSREADFIELD: opening global file: ncep_qnet.bin
(PID.TID 0000.0001)  MDSREADFIELD: opening global file: ncep_qnet.bin
(PID.TID 0000.0001)  MDSREADFIELD: opening global file: lev_sst.bin
(PID.TID 0000.0001)  MDSREADFIELD: opening global file: lev_sst.bin
(PID.TID 0000.0001)  MDSREADFIELD: opening global file: lev_sss.bin
(PID.TID 0000.0001)  MDSREADFIELD: opening global file: lev_sss.bin
time,SST,SSS,fu,fv,Q,E-P,i0,i1,a,b =   1.2960E+06  9.5843E-01  3.4715E+01 -3.5633E-02 -5.7257E-02  2.6577E+02  0.0000E+00     1     2  0.0000E+00  1.0000E+00
time,fu0,fu1,fu =   1.2960E+06 -3.5633E-02 -1.4435E-02 -3.5633E-02  0.000000000000000E+00  1.000000000000000E+00
 cg2d: Sum(rhs),rhsMax =  -1.34728686540520E-12  9.29740447860595E+00
time,SST,SSS,fu,fv,Q,E-P,i0,i1,a,b =   1.3392E+06  9.3359E-01  3.4710E+01 -3.5280E-02 -5.6596E-02  2.6535E+02  0.0000E+00     1     2  1.6667E-02  9.8333E-01
time,fu0,fu1,fu =   1.3392E+06 -3.5633E-02 -1.4435E-02 -3.5280E-02  1.666666666666667E-02  9.833333333333333E-01
 cg2d: Sum(rhs),rhsMax =  -1.09411785187419E-12  9.11143528718028E+00
time,SST,SSS,fu,fv,Q,E-P,i0,i1,a,b =   1.3824E+06  9.0875E-01  3.4705E+01 -3.4926E-02 -5.5936E-02  2.6493E+02  0.0000E+00     1     2  3.3333E-02  9.6667E-01
time,fu0,fu1,fu =   1.3824E+06 -3.5633E-02 -1.4435E-02 -3.4926E-02  3.333333333333333E-02  9.666666666666667E-01
 cg2d: Sum(rhs),rhsMax =  -1.47255818649938E-12  9.23484342203282E+00
time,SST,SSS,fu,fv,Q,E-P,i0,i1,a,b =   1.4256E+06  8.8391E-01  3.4700E+01 -3.4573E-02 -5.5276E-02  2.6451E+02  0.0000E+00     1     2  5.0000E-02  9.5000E-01
time,fu0,fu1,fu =   1.4256E+06 -3.5633E-02 -1.4435E-02 -3.4573E-02  5.000000000000000E-02  9.500000000000000E-01
 cg2d: Sum(rhs),rhsMax =  -1.75801734281222E-12  9.27184123914893E+00
time,SST,SSS,fu,fv,Q,E-P,i0,i1,a,b =   1.4688E+06  8.5907E-01  3.4695E+01 -3.4220E-02 -5.4615E-02  2.6408E+02  0.0000E+00     1     2  6.6667E-02  9.3333E-01
time,fu0,fu1,fu =   1.4688E+06 -3.5633E-02 -1.4435E-02 -3.4220E-02  6.666666666666667E-02  9.333333333333333E-01
 cg2d: Sum(rhs),rhsMax =  -1.10694786670251E-12  9.21972113560534E+00
time,SST,SSS,fu,fv,Q,E-P,i0,i1,a,b =   1.5120E+06  8.3424E-01  3.4690E+01 -3.3866E-02 -5.3955E-02  2.6366E+02  0.0000E+00     1     2  8.3333E-02  9.1667E-01
time,fu0,fu1,fu =   1.5120E+06 -3.5633E-02 -1.4435E-02 -3.3866E-02  8.333333333333333E-02  9.166666666666666E-01
 cg2d: Sum(rhs),rhsMax =  -1.17995196946552E-12  9.07797564024456E+00
time,SST,SSS,fu,fv,Q,E-P,i0,i1,a,b =   1.5552E+06  8.0940E-01  3.4685E+01 -3.3513E-02 -5.3295E-02  2.6324E+02  0.0000E+00     1     2  1.0000E-01  9.0000E-01
time,fu0,fu1,fu =   1.5552E+06 -3.5633E-02 -1.4435E-02 -3.3513E-02  1.000000000000000E-01  9.000000000000000E-01
 cg2d: Sum(rhs),rhsMax =  -1.51429563333139E-12  8.84823986971589E+00
time,SST,SSS,fu,fv,Q,E-P,i0,i1,a,b =   1.5984E+06  7.8456E-01  3.4680E+01 -3.3160E-02 -5.2634E-02  2.6282E+02  0.0000E+00     1     2  1.1667E-01  8.8333E-01
time,fu0,fu1,fu =   1.5984E+06 -3.5633E-02 -1.4435E-02 -3.3160E-02  1.166666666666667E-01  8.833333333333333E-01
 cg2d: Sum(rhs),rhsMax =  -1.01280095421430E-12  8.53412825154015E+00
time,SST,SSS,fu,fv,Q,E-P,i0,i1,a,b =   1.6416E+06  7.5972E-01  3.4675E+01 -3.2807E-02 -5.1974E-02  2.6240E+02  0.0000E+00     1     2  1.3333E-01  8.6667E-01
time,fu0,fu1,fu =   1.6416E+06 -3.5633E-02 -1.4435E-02 -3.2807E-02  1.333333333333333E-01  8.666666666666667E-01
 cg2d: Sum(rhs),rhsMax =  -9.03575825272895E-13  8.14100488295260E+00
time,SST,SSS,fu,fv,Q,E-P,i0,i1,a,b =   1.6848E+06  7.3488E-01  3.4671E+01 -3.2453E-02 -5.1313E-02  2.6198E+02  0.0000E+00     1     2  1.5000E-01  8.5000E-01
time,fu0,fu1,fu =   1.6848E+06 -3.5633E-02 -1.4435E-02 -3.2453E-02  1.500000000000000E-01  8.500000000000000E-01
 cg2d: Sum(rhs),rhsMax =  -8.85680417894719E-13  7.67572633323960E+00
time,SST,SSS,fu,fv,Q,E-P,i0,i1,a,b =   1.7280E+06  7.1005E-01  3.4666E+01 -3.2100E-02 -5.0653E-02  2.6156E+02  0.0000E+00     1     2  1.6667E-01  8.3333E-01
time,fu0,fu1,fu =   1.7280E+06 -3.5633E-02 -1.4435E-02 -3.2100E-02  1.666666666666667E-01  8.333333333333334E-01
 cg2d: Sum(rhs),rhsMax =  -1.41369554951254E-12  7.14638845753352E+00
time,SST,SSS,fu,fv,Q,E-P,i0,i1,a,b =   1.7712E+06  6.8521E-01  3.4661E+01 -3.1747E-02 -4.9993E-02  2.6113E+02  0.0000E+00     1     2  1.8333E-01  8.1667E-01
time,fu0,fu1,fu =   1.7712E+06 -3.5633E-02 -1.4435E-02 -3.1747E-02  1.833333333333333E-01  8.166666666666667E-01
 cg2d: Sum(rhs),rhsMax =  -2.78402301212566E-13  7.16032444209467E+00
time,SST,SSS,fu,fv,Q,E-P,i0,i1,a,b =   1.8144E+06  6.6037E-01  3.4656E+01 -3.1393E-02 -4.9332E-02  2.6071E+02  0.0000E+00     1     2  2.0000E-01  8.0000E-01
time,fu0,fu1,fu =   1.8144E+06 -3.5633E-02 -1.4435E-02 -3.1393E-02  2.000000000000000E-01  8.000000000000000E-01
 cg2d: Sum(rhs),rhsMax =   1.07566733298370E-13  7.19604412894201E+00
time,SST,SSS,fu,fv,Q,E-P,i0,i1,a,b =   1.8576E+06  6.3553E-01  3.4651E+01 -3.1040E-02 -4.8672E-02  2.6029E+02  0.0000E+00     1     2  2.1667E-01  7.8333E-01
time,fu0,fu1,fu =   1.8576E+06 -3.5633E-02 -1.4435E-02 -3.1040E-02  2.166666666666667E-01  7.833333333333333E-01
 cg2d: Sum(rhs),rhsMax =   7.62584440039404E-15  7.21623311609593E+00
time,SST,SSS,fu,fv,Q,E-P,i0,i1,a,b =   1.9008E+06  6.1069E-01  3.4646E+01 -3.0687E-02 -4.8012E-02  2.5987E+02  0.0000E+00     1     2  2.3333E-01  7.6667E-01
time,fu0,fu1,fu =   1.9008E+06 -3.5633E-02 -1.4435E-02 -3.0687E-02  2.333333333333333E-01  7.666666666666666E-01
 cg2d: Sum(rhs),rhsMax =  -4.12794798343441E-13  7.36407458780969E+00
time,SST,SSS,fu,fv,Q,E-P,i0,i1,a,b =   1.9440E+06  5.8585E-01  3.4641E+01 -3.0333E-02 -4.7351E-02  2.5945E+02  0.0000E+00     1     2  2.5000E-01  7.5000E-01
time,fu0,fu1,fu =   1.9440E+06 -3.5633E-02 -1.4435E-02 -3.0333E-02  2.500000000000000E-01  7.500000000000000E-01
 cg2d: Sum(rhs),rhsMax =   2.50223453068799E-13  7.63412022430594E+00
time,SST,SSS,fu,fv,Q,E-P,i0,i1,a,b =   1.9872E+06  5.6102E-01  3.4636E+01 -2.9980E-02 -4.6691E-02  2.5903E+02  0.0000E+00     1     2  2.6667E-01  7.3333E-01
time,fu0,fu1,fu =   1.9872E+06 -3.5633E-02 -1.4435E-02 -2.9980E-02  2.666666666666667E-01  7.333333333333334E-01
 cg2d: Sum(rhs),rhsMax =   2.18942919349985E-13  7.83757999009940E+00
time,SST,SSS,fu,fv,Q,E-P,i0,i1,a,b =   2.0304E+06  5.3618E-01  3.4631E+01 -2.9627E-02 -4.6031E-02  2.5861E+02  0.0000E+00     1     2  2.8333E-01  7.1667E-01
time,fu0,fu1,fu =   2.0304E+06 -3.5633E-02 -1.4435E-02 -2.9627E-02  2.833333333333333E-01  7.166666666666667E-01
 cg2d: Sum(rhs),rhsMax =   1.12194975532276E-13  7.97661679814900E+00
time,SST,SSS,fu,fv,Q,E-P,i0,i1,a,b =   2.0736E+06  5.1134E-01  3.4627E+01 -2.9273E-02 -4.5370E-02  2.5818E+02  0.0000E+00     1     2  3.0000E-01  7.0000E-01
time,fu0,fu1,fu =   2.0736E+06 -3.5633E-02 -1.4435E-02 -2.9273E-02  3.000000000000000E-01  7.000000000000000E-01
 cg2d: Sum(rhs),rhsMax =   2.50119369660240E-13  8.05769559821270E+00
time,SST,SSS,fu,fv,Q,E-P,i0,i1,a,b =   2.1168E+06  4.8650E-01  3.4622E+01 -2.8920E-02 -4.4710E-02  2.5776E+02  0.0000E+00     1     2  3.1667E-01  6.8333E-01
time,fu0,fu1,fu =   2.1168E+06 -3.5633E-02 -1.4435E-02 -2.8920E-02  3.166666666666667E-01  6.833333333333333E-01
 cg2d: Sum(rhs),rhsMax =   3.77475828372553E-14  8.09041726307916E+00
time,SST,SSS,fu,fv,Q,E-P,i0,i1,a,b =   2.1600E+06  4.6166E-01  3.4617E+01 -2.8567E-02 -4.4050E-02  2.5734E+02  0.0000E+00     1     2  3.3333E-01  6.6667E-01
time,fu0,fu1,fu =   2.1600E+06 -3.5633E-02 -1.4435E-02 -2.8567E-02  3.333333333333333E-01  6.666666666666667E-01
 cg2d: Sum(rhs),rhsMax =   9.02632135701964E-13  8.08616468530189E+00
time,SST,SSS,fu,fv,Q,E-P,i0,i1,a,b =   2.2032E+06  4.3683E-01  3.4612E+01 -2.8214E-02 -4.3389E-02  2.5692E+02  0.0000E+00     1     2  3.5000E-01  6.5000E-01
time,fu0,fu1,fu =   2.2032E+06 -3.5633E-02 -1.4435E-02 -2.8214E-02  3.500000000000000E-01  6.500000000000000E-01
 cg2d: Sum(rhs),rhsMax =   7.51093631734534E-13  8.05674137227300E+00
time,SST,SSS,fu,fv,Q,E-P,i0,i1,a,b =   2.2464E+06  4.1199E-01  3.4607E+01 -2.7860E-02 -4.2729E-02  2.5650E+02  0.0000E+00     1     2  3.6667E-01  6.3333E-01
time,fu0,fu1,fu =   2.2464E+06 -3.5633E-02 -1.4435E-02 -2.7860E-02  3.666666666666666E-01  6.333333333333333E-01
 cg2d: Sum(rhs),rhsMax =   2.05009620390939E-13  8.18299933875206E+00
time,SST,SSS,fu,fv,Q,E-P,i0,i1,a,b =   2.2896E+06  3.8715E-01  3.4602E+01 -2.7507E-02 -4.2069E-02  2.5608E+02  0.0000E+00     1     2  3.8333E-01  6.1667E-01
time,fu0,fu1,fu =   2.2896E+06 -3.5633E-02 -1.4435E-02 -2.7507E-02  3.833333333333334E-01  6.166666666666667E-01
 cg2d: Sum(rhs),rhsMax =   1.98271954410245E-13  9.40876997244271E+00
time,SST,SSS,fu,fv,Q,E-P,i0,i1,a,b =   2.3328E+06  3.6231E-01  3.4597E+01 -2.7154E-02 -4.1408E-02  2.5565E+02  0.0000E+00     1     2  4.0000E-01  6.0000E-01
time,fu0,fu1,fu =   2.3328E+06 -3.5633E-02 -1.4435E-02 -2.7154E-02  4.000000000000000E-01  6.000000000000000E-01
 cg2d: Sum(rhs),rhsMax =   1.00038033412631E-12  1.05293283609318E+01
time,SST,SSS,fu,fv,Q,E-P,i0,i1,a,b =   2.3760E+06  3.3747E-01  3.4592E+01 -2.6800E-02 -4.0748E-02  2.5523E+02  0.0000E+00     1     2  4.1667E-01  5.8333E-01
time,fu0,fu1,fu =   2.3760E+06 -3.5633E-02 -1.4435E-02 -2.6800E-02  4.166666666666667E-01  5.833333333333333E-01
 cg2d: Sum(rhs),rhsMax =   7.49407480515885E-13  1.15144716914192E+01
time,SST,SSS,fu,fv,Q,E-P,i0,i1,a,b =   2.4192E+06  3.1264E-01  3.4587E+01 -2.6447E-02 -4.0088E-02  2.5481E+02  0.0000E+00     1     2  4.3333E-01  5.6667E-01
time,fu0,fu1,fu =   2.4192E+06 -3.5633E-02 -1.4435E-02 -2.6447E-02  4.333333333333333E-01  5.666666666666667E-01
 cg2d: Sum(rhs),rhsMax =   1.60827601236591E-12  1.23395348414352E+01
time,SST,SSS,fu,fv,Q,E-P,i0,i1,a,b =   2.4624E+06  2.8780E-01  3.4582E+01 -2.6094E-02 -3.9427E-02  2.5439E+02  0.0000E+00     1     2  4.5000E-01  5.5000E-01
time,fu0,fu1,fu =   2.4624E+06 -3.5633E-02 -1.4435E-02 -2.6094E-02  4.500000000000000E-01  5.500000000000000E-01
 cg2d: Sum(rhs),rhsMax =   2.03664168862971E-12  1.29859659706056E+01
time,SST,SSS,fu,fv,Q,E-P,i0,i1,a,b =   2.5056E+06  2.6296E-01  3.4578E+01 -2.5740E-02 -3.8767E-02  2.5397E+02  0.0000E+00     1     2  4.6667E-01  5.3333E-01
time,fu0,fu1,fu =   2.5056E+06 -3.5633E-02 -1.4435E-02 -2.5740E-02  4.666666666666667E-01  5.333333333333333E-01
 cg2d: Sum(rhs),rhsMax =   2.34241098739929E-12  1.34416466769054E+01
time,SST,SSS,fu,fv,Q,E-P,i0,i1,a,b =   2.5488E+06  2.3812E-01  3.4573E+01 -2.5387E-02 -3.8106E-02  2.5355E+02  0.0000E+00     1     2  4.8333E-01  5.1667E-01
time,fu0,fu1,fu =   2.5488E+06 -3.5633E-02 -1.4435E-02 -2.5387E-02  4.833333333333333E-01  5.166666666666666E-01
 cg2d: Sum(rhs),rhsMax =   2.14253614849724E-12  1.37009644671071E+01
time,SST,SSS,fu,fv,Q,E-P,i0,i1,a,b =   2.5920E+06  2.1328E-01  3.4568E+01 -2.5034E-02 -3.7446E-02  2.5313E+02  0.0000E+00     1     2  5.0000E-01  5.0000E-01
time,fu0,fu1,fu =   2.5920E+06 -3.5633E-02 -1.4435E-02 -2.5034E-02  5.000000000000000E-01  5.000000000000000E-01
 cg2d: Sum(rhs),rhsMax =   2.85241968933647E-12  1.37646542570023E+01
time,SST,SSS,fu,fv,Q,E-P,i0,i1,a,b =   2.6352E+06  1.8845E-01  3.4563E+01 -2.4681E-02 -3.6786E-02  2.5270E+02  0.0000E+00     1     2  5.1667E-01  4.8333E-01
time,fu0,fu1,fu =   2.6352E+06 -3.5633E-02 -1.4435E-02 -2.4681E-02  5.166666666666667E-01  4.833333333333333E-01
 cg2d: Sum(rhs),rhsMax =   2.87361801021291E-12  1.36394326796378E+01
time,SST,SSS,fu,fv,Q,E-P,i0,i1,a,b =   2.6784E+06  1.6361E-01  3.4558E+01 -2.4327E-02 -3.6125E-02  2.5228E+02  0.0000E+00     1     2  5.3333E-01  4.6667E-01
time,fu0,fu1,fu =   2.6784E+06 -3.5633E-02 -1.4435E-02 -2.4327E-02  5.333333333333333E-01  4.666666666666667E-01
 cg2d: Sum(rhs),rhsMax =   2.43664810550825E-12  1.33374542008437E+01
time,SST,SSS,fu,fv,Q,E-P,i0,i1,a,b =   2.7216E+06  1.3877E-01  3.4553E+01 -2.3974E-02 -3.5465E-02  2.5186E+02  0.0000E+00     1     2  5.5000E-01  4.5000E-01
time,fu0,fu1,fu =   2.7216E+06 -3.5633E-02 -1.4435E-02 -2.3974E-02  5.500000000000000E-01  4.500000000000000E-01
 cg2d: Sum(rhs),rhsMax =   3.13941928009598E-12  1.28756215697525E+01
time,SST,SSS,fu,fv,Q,E-P,i0,i1,a,b =   2.7648E+06  1.1393E-01  3.4548E+01 -2.3621E-02 -3.4805E-02  2.5144E+02  0.0000E+00     1     2  5.6667E-01  4.3333E-01
time,fu0,fu1,fu =   2.7648E+06 -3.5633E-02 -1.4435E-02 -2.3621E-02  5.666666666666667E-01  4.333333333333333E-01
 cg2d: Sum(rhs),rhsMax =   3.49895112883303E-12  1.22747851536260E+01
time,SST,SSS,fu,fv,Q,E-P,i0,i1,a,b =   2.8080E+06  8.9094E-02  3.4543E+01 -2.3267E-02 -3.4144E-02  2.5102E+02  0.0000E+00     1     2  5.8333E-01  4.1667E-01
time,fu0,fu1,fu =   2.8080E+06 -3.5633E-02 -1.4435E-02 -2.3267E-02  5.833333333333334E-01  4.166666666666666E-01
 cg2d: Sum(rhs),rhsMax =   3.54534457347455E-12  1.15588664071724E+01
time,SST,SSS,fu,fv,Q,E-P,i0,i1,a,b =   2.8512E+06  6.4256E-02  3.4538E+01 -2.2914E-02 -3.3484E-02  2.5060E+02  0.0000E+00     1     2  6.0000E-01  4.0000E-01
time,fu0,fu1,fu =   2.8512E+06 -3.5633E-02 -1.4435E-02 -2.2914E-02  6.000000000000000E-01  4.000000000000000E-01
 cg2d: Sum(rhs),rhsMax =   4.12173073449651E-12  1.07539402723234E+01
time,SST,SSS,fu,fv,Q,E-P,i0,i1,a,b =   2.8944E+06  3.9418E-02  3.4534E+01 -2.2561E-02 -3.2824E-02  2.5018E+02  0.0000E+00     1     2  6.1667E-01  3.8333E-01
time,fu0,fu1,fu =   2.8944E+06 -3.5633E-02 -1.4435E-02 -2.2561E-02  6.166666666666667E-01  3.833333333333333E-01
 cg2d: Sum(rhs),rhsMax =   4.11132933253455E-12  9.88730983462039E+00
time,SST,SSS,fu,fv,Q,E-P,i0,i1,a,b =   2.9376E+06  1.4580E-02  3.4529E+01 -2.2207E-02 -3.2163E-02  2.4975E+02  0.0000E+00     1     2  6.3333E-01  3.6667E-01
time,fu0,fu1,fu =   2.9376E+06 -3.5633E-02 -1.4435E-02 -2.2207E-02  6.333333333333333E-01  3.666666666666667E-01
 cg2d: Sum(rhs),rhsMax =   3.71746383676097E-12  8.98660419546648E+00
time,SST,SSS,fu,fv,Q,E-P,i0,i1,a,b =   2.9808E+06 -1.0258E-02  3.4524E+01 -2.1854E-02 -3.1503E-02  2.4933E+02  0.0000E+00     1     2  6.5000E-01  3.5000E-01
time,fu0,fu1,fu =   2.9808E+06 -3.5633E-02 -1.4435E-02 -2.1854E-02  6.500000000000000E-01  3.500000000000000E-01
 cg2d: Sum(rhs),rhsMax =   3.71078168193151E-12  8.07892736504317E+00
time,SST,SSS,fu,fv,Q,E-P,i0,i1,a,b =   3.0240E+06 -3.5096E-02  3.4519E+01 -2.1501E-02 -3.0843E-02  2.4891E+02  0.0000E+00     1     2  6.6667E-01  3.3333E-01
time,fu0,fu1,fu =   3.0240E+06 -3.5633E-02 -1.4435E-02 -2.1501E-02  6.666666666666666E-01  3.333333333333334E-01
 cg2d: Sum(rhs),rhsMax =   3.26805249528661E-12  7.98205142166786E+00
time,SST,SSS,fu,fv,Q,E-P,i0,i1,a,b =   3.0672E+06 -5.9934E-02  3.4514E+01 -2.1147E-02 -3.0182E-02  2.4849E+02  0.0000E+00     1     2  6.8333E-01  3.1667E-01
time,fu0,fu1,fu =   3.0672E+06 -3.5633E-02 -1.4435E-02 -2.1147E-02  6.833333333333333E-01  3.166666666666667E-01
 cg2d: Sum(rhs),rhsMax =   2.62598276457027E-12  8.00388446367162E+00
time,SST,SSS,fu,fv,Q,E-P,i0,i1,a,b =   3.1104E+06 -8.4772E-02  3.4509E+01 -2.0794E-02 -2.9522E-02  2.4807E+02  0.0000E+00     1     2  7.0000E-01  3.0000E-01
time,fu0,fu1,fu =   3.1104E+06 -3.5633E-02 -1.4435E-02 -2.0794E-02  7.000000000000000E-01  3.000000000000000E-01
 cg2d: Sum(rhs),rhsMax =   3.32109340028808E-12  8.02911819030539E+00
time,SST,SSS,fu,fv,Q,E-P,i0,i1,a,b =   3.1536E+06 -1.0961E-01  3.4504E+01 -2.0441E-02 -2.8862E-02  2.4765E+02  0.0000E+00     1     2  7.1667E-01  2.8333E-01
time,fu0,fu1,fu =   3.1536E+06 -3.5633E-02 -1.4435E-02 -2.0441E-02  7.166666666666667E-01  2.833333333333333E-01
 cg2d: Sum(rhs),rhsMax =   2.66328625819767E-12  8.49105136288463E+00
time,SST,SSS,fu,fv,Q,E-P,i0,i1,a,b =   3.1968E+06 -1.3445E-01  3.4499E+01 -2.0088E-02 -2.8201E-02  2.4722E+02  0.0000E+00     1     2  7.3333E-01  2.6667E-01
time,fu0,fu1,fu =   3.1968E+06 -3.5633E-02 -1.4435E-02 -2.0088E-02  7.333333333333333E-01  2.666666666666667E-01
 cg2d: Sum(rhs),rhsMax =   2.37141556391762E-12  8.90375481805890E+00
time,SST,SSS,fu,fv,Q,E-P,i0,i1,a,b =   3.2400E+06 -1.5929E-01  3.4494E+01 -1.9734E-02 -2.7541E-02  2.4680E+02  0.0000E+00     1     2  7.5000E-01  2.5000E-01
time,fu0,fu1,fu =   3.2400E+06 -3.5633E-02 -1.4435E-02 -1.9734E-02  7.500000000000000E-01  2.500000000000000E-01
 cg2d: Sum(rhs),rhsMax =   2.25489765748321E-12  9.21995793871482E+00
time,SST,SSS,fu,fv,Q,E-P,i0,i1,a,b =   3.2832E+06 -1.8412E-01  3.4490E+01 -1.9381E-02 -2.6880E-02  2.4638E+02  0.0000E+00     1     2  7.6667E-01  2.3333E-01
time,fu0,fu1,fu =   3.2832E+06 -3.5633E-02 -1.4435E-02 -1.9381E-02  7.666666666666667E-01  2.333333333333333E-01
 cg2d: Sum(rhs),rhsMax =   2.20532619943370E-12  9.43408934898056E+00
time,SST,SSS,fu,fv,Q,E-P,i0,i1,a,b =   3.3264E+06 -2.0896E-01  3.4485E+01 -1.9028E-02 -2.6220E-02  2.4596E+02  0.0000E+00     1     2  7.8333E-01  2.1667E-01
time,fu0,fu1,fu =   3.3264E+06 -3.5633E-02 -1.4435E-02 -1.9028E-02  7.833333333333333E-01  2.166666666666667E-01
 cg2d: Sum(rhs),rhsMax =   2.23611407168534E-12  9.54305714875989E+00
time,SST,SSS,fu,fv,Q,E-P,i0,i1,a,b =   3.3696E+06 -2.3380E-01  3.4480E+01 -1.8674E-02 -2.5560E-02  2.4554E+02  0.0000E+00     1     2  8.0000E-01  2.0000E-01
time,fu0,fu1,fu =   3.3696E+06 -3.5633E-02 -1.4435E-02 -1.8674E-02  8.000000000000000E-01  2.000000000000000E-01
 cg2d: Sum(rhs),rhsMax =   2.35293728945152E-12  9.54626022711280E+00
time,SST,SSS,fu,fv,Q,E-P,i0,i1,a,b =   3.4128E+06 -2.5864E-01  3.4475E+01 -1.8321E-02 -2.4899E-02  2.4512E+02  0.0000E+00     1     2  8.1667E-01  1.8333E-01
time,fu0,fu1,fu =   3.4128E+06 -3.5633E-02 -1.4435E-02 -1.8321E-02  8.166666666666667E-01  1.833333333333333E-01
 cg2d: Sum(rhs),rhsMax =   2.18375317828645E-12  9.44553414063406E+00
time,SST,SSS,fu,fv,Q,E-P,i0,i1,a,b =   3.4560E+06 -2.8348E-01  3.4470E+01 -1.7968E-02 -2.4239E-02  2.4470E+02  0.0000E+00     1     2  8.3333E-01  1.6667E-01
time,fu0,fu1,fu =   3.4560E+06 -3.5633E-02 -1.4435E-02 -1.7968E-02  8.333333333333334E-01  1.666666666666666E-01
 cg2d: Sum(rhs),rhsMax =   2.18385726169501E-12  9.24503800862220E+00
time,SST,SSS,fu,fv,Q,E-P,i0,i1,a,b =   3.4992E+06 -3.0831E-01  3.4465E+01 -1.7614E-02 -2.3579E-02  2.4427E+02  0.0000E+00     1     2  8.5000E-01  1.5000E-01
time,fu0,fu1,fu =   3.4992E+06 -3.5633E-02 -1.4435E-02 -1.7614E-02  8.500000000000000E-01  1.500000000000000E-01
 cg2d: Sum(rhs),rhsMax =   2.26858115626172E-12  8.95109007405973E+00
time,SST,SSS,fu,fv,Q,E-P,i0,i1,a,b =   3.5424E+06 -3.3315E-01  3.4460E+01 -1.7261E-02 -2.2918E-02  2.4385E+02  0.0000E+00     1     2  8.6667E-01  1.3333E-01
time,fu0,fu1,fu =   3.5424E+06 -3.5633E-02 -1.4435E-02 -1.7261E-02  8.666666666666667E-01  1.333333333333333E-01
 cg2d: Sum(rhs),rhsMax =   2.84774981373914E-12  8.57196022112412E+00
time,SST,SSS,fu,fv,Q,E-P,i0,i1,a,b =   3.5856E+06 -3.5799E-01  3.4455E+01 -1.6908E-02 -2.2258E-02  2.4343E+02  0.0000E+00     1     2  8.8333E-01  1.1667E-01
time,fu0,fu1,fu =   3.5856E+06 -3.5633E-02 -1.4435E-02 -1.6908E-02  8.833333333333333E-01  1.166666666666667E-01
 cg2d: Sum(rhs),rhsMax =   3.33609528890833E-12  8.11762790727958E+00
time,SST,SSS,fu,fv,Q,E-P,i0,i1,a,b =   3.6288E+06 -3.8283E-01  3.4450E+01 -1.6555E-02 -2.1598E-02  2.4301E+02  0.0000E+00     1     2  9.0000E-01  1.0000E-01
time,fu0,fu1,fu =   3.6288E+06 -3.5633E-02 -1.4435E-02 -1.6555E-02  9.000000000000000E-01  9.999999999999998E-02
 cg2d: Sum(rhs),rhsMax =   4.29582758254554E-12  8.02199630053152E+00
time,SST,SSS,fu,fv,Q,E-P,i0,i1,a,b =   3.6720E+06 -4.0767E-01  3.4446E+01 -1.6201E-02 -2.0937E-02  2.4259E+02  0.0000E+00     1     2  9.1667E-01  8.3333E-02
time,fu0,fu1,fu =   3.6720E+06 -3.5633E-02 -1.4435E-02 -1.6201E-02  9.166666666666666E-01  8.333333333333337E-02
 cg2d: Sum(rhs),rhsMax =   3.79292430796596E-12  7.98965233791552E+00
time,SST,SSS,fu,fv,Q,E-P,i0,i1,a,b =   3.7152E+06 -4.3250E-01  3.4441E+01 -1.5848E-02 -2.0277E-02  2.4217E+02  0.0000E+00     1     2  9.3333E-01  6.6667E-02
time,fu0,fu1,fu =   3.7152E+06 -3.5633E-02 -1.4435E-02 -1.5848E-02  9.333333333333333E-01  6.666666666666665E-02
 cg2d: Sum(rhs),rhsMax =   4.23495960522047E-12  7.95826433496932E+00
time,SST,SSS,fu,fv,Q,E-P,i0,i1,a,b =   3.7584E+06 -4.5734E-01  3.4436E+01 -1.5495E-02 -1.9617E-02  2.4175E+02  0.0000E+00     1     2  9.5000E-01  5.0000E-02
time,fu0,fu1,fu =   3.7584E+06 -3.5633E-02 -1.4435E-02 -1.5495E-02  9.500000000000000E-01  5.000000000000004E-02
 cg2d: Sum(rhs),rhsMax =   4.05550593107762E-12  7.92999020623616E+00
time,SST,SSS,fu,fv,Q,E-P,i0,i1,a,b =   3.8016E+06 -4.8218E-01  3.4431E+01 -1.5141E-02 -1.8956E-02  2.4132E+02  0.0000E+00     1     2  9.6667E-01  3.3333E-02
time,fu0,fu1,fu =   3.8016E+06 -3.5633E-02 -1.4435E-02 -1.5141E-02  9.666666666666667E-01  3.333333333333333E-02
 cg2d: Sum(rhs),rhsMax =   4.75422479162546E-12  7.90697481207766E+00
time,SST,SSS,fu,fv,Q,E-P,i0,i1,a,b =   3.8448E+06 -5.0702E-01  3.4426E+01 -1.4788E-02 -1.8296E-02  2.4090E+02  0.0000E+00     1     2  9.8333E-01  1.6667E-02
time,fu0,fu1,fu =   3.8448E+06 -3.5633E-02 -1.4435E-02 -1.4788E-02  9.833333333333333E-01  1.666666666666672E-02
 cg2d: Sum(rhs),rhsMax =   4.30043500809774E-12  7.89125105928282E+00
S/R EXTERNAL_FIELDS_LOAD: Reading new data:    2    3        90  3.888000000000E+06
(PID.TID 0000.0001)  MDSREADFIELD: opening global file: trenberth_taux.bin
(PID.TID 0000.0001)  MDSREADFIELD: opening global file: trenberth_taux.bin
(PID.TID 0000.0001)  MDSREADFIELD: opening global file: trenberth_tauy.bin
(PID.TID 0000.0001)  MDSREADFIELD: opening global file: trenberth_tauy.bin
(PID.TID 0000.0001)  MDSREADFIELD: opening global file: ncep_qnet.bin
(PID.TID 0000.0001)  MDSREADFIELD: opening global file: ncep_qnet.bin
(PID.TID 0000.0001)  MDSREADFIELD: opening global file: lev_sst.bin
(PID.TID 0000.0001)  MDSREADFIELD: opening global file: lev_sst.bin
(PID.TID 0000.0001)  MDSREADFIELD: opening global file: lev_sss.bin
(PID.TID 0000.0001)  MDSREADFIELD: opening global file: lev_sss.bin
time,SST,SSS,fu,fv,Q,E-P,i0,i1,a,b =   3.8880E+06 -5.3186E-01  3.4421E+01 -1.4435E-02 -1.7636E-02  2.4048E+02  0.0000E+00     2     3  0.0000E+00  1.0000E+00
time,fu0,fu1,fu =   3.8880E+06 -1.4435E-02 -2.7199E-02 -1.4435E-02  0.000000000000000E+00  1.000000000000000E+00
 cg2d: Sum(rhs),rhsMax =   4.92320073597341E-12  7.88464109388094E+00
time,SST,SSS,fu,fv,Q,E-P,i0,i1,a,b =   3.9312E+06 -5.2606E-01  3.4424E+01 -1.4647E-02 -1.7351E-02  2.4006E+02  0.0000E+00     2     3  1.6667E-02  9.8333E-01
time,fu0,fu1,fu =   3.9312E+06 -1.4435E-02 -2.7199E-02 -1.4647E-02  1.666666666666667E-02  9.833333333333333E-01
 cg2d: Sum(rhs),rhsMax =   4.38017677684144E-12  8.18557534346150E+00
time,SST,SSS,fu,fv,Q,E-P,i0,i1,a,b =   3.9744E+06 -5.2026E-01  3.4426E+01 -1.4860E-02 -1.7067E-02  2.3964E+02  0.0000E+00     2     3  3.3333E-02  9.6667E-01
time,fu0,fu1,fu =   3.9744E+06 -1.4435E-02 -2.7199E-02 -1.4860E-02  3.333333333333333E-02  9.666666666666667E-01
 cg2d: Sum(rhs),rhsMax =   3.83722220664851E-12  8.65937305071601E+00
time,SST,SSS,fu,fv,Q,E-P,i0,i1,a,b =   4.0176E+06 -5.1446E-01  3.4429E+01 -1.5073E-02 -1.6783E-02  2.3923E+02  0.0000E+00     2     3  5.0000E-02  9.5000E-01
time,fu0,fu1,fu =   4.0176E+06 -1.4435E-02 -2.7199E-02 -1.5073E-02  5.000000000000000E-02  9.500000000000000E-01
 cg2d: Sum(rhs),rhsMax =   3.32726901586256E-12  9.08149166257479E+00
time,SST,SSS,fu,fv,Q,E-P,i0,i1,a,b =   4.0608E+06 -5.0866E-01  3.4432E+01 -1.5286E-02 -1.6498E-02  2.3881E+02  0.0000E+00     2     3  6.6667E-02  9.3333E-01
time,fu0,fu1,fu =   4.0608E+06 -1.4435E-02 -2.7199E-02 -1.5286E-02  6.666666666666667E-02  9.333333333333333E-01
 cg2d: Sum(rhs),rhsMax =   2.87504048346321E-12  9.44424368550699E+00
time,SST,SSS,fu,fv,Q,E-P,i0,i1,a,b =   4.1040E+06 -5.0286E-01  3.4434E+01 -1.5498E-02 -1.6214E-02  2.3839E+02  0.0000E+00     2     3  8.3333E-02  9.1667E-01
time,fu0,fu1,fu =   4.1040E+06 -1.4435E-02 -2.7199E-02 -1.5498E-02  8.333333333333333E-02  9.166666666666666E-01
 cg2d: Sum(rhs),rhsMax =   3.86448512079696E-12  9.74175903868278E+00
time,SST,SSS,fu,fv,Q,E-P,i0,i1,a,b =   4.1472E+06 -4.9706E-01  3.4437E+01 -1.5711E-02 -1.5930E-02  2.3797E+02  0.0000E+00     2     3  1.0000E-01  9.0000E-01
time,fu0,fu1,fu =   4.1472E+06 -1.4435E-02 -2.7199E-02 -1.5711E-02  1.000000000000000E-01  9.000000000000000E-01
 cg2d: Sum(rhs),rhsMax =   3.28204130539689E-12  9.97004043776294E+00
time,SST,SSS,fu,fv,Q,E-P,i0,i1,a,b =   4.1904E+06 -4.9126E-01  3.4440E+01 -1.5924E-02 -1.5646E-02  2.3755E+02  0.0000E+00     2     3  1.1667E-01  8.8333E-01
time,fu0,fu1,fu =   4.1904E+06 -1.4435E-02 -2.7199E-02 -1.5924E-02  1.166666666666667E-01  8.833333333333333E-01
 cg2d: Sum(rhs),rhsMax =   2.38527947393763E-12  1.01269747114513E+01
time,SST,SSS,fu,fv,Q,E-P,i0,i1,a,b =   4.2336E+06 -4.8546E-01  3.4442E+01 -1.6137E-02 -1.5361E-02  2.3714E+02  0.0000E+00     2     3  1.3333E-01  8.6667E-01
time,fu0,fu1,fu =   4.2336E+06 -1.4435E-02 -2.7199E-02 -1.6137E-02  1.333333333333333E-01  8.666666666666667E-01
 cg2d: Sum(rhs),rhsMax =   3.10704934003425E-12  1.02123009543083E+01
time,SST,SSS,fu,fv,Q,E-P,i0,i1,a,b =   4.2768E+06 -4.7966E-01  3.4445E+01 -1.6349E-02 -1.5077E-02  2.3672E+02  0.0000E+00     2     3  1.5000E-01  8.5000E-01
time,fu0,fu1,fu =   4.2768E+06 -1.4435E-02 -2.7199E-02 -1.6349E-02  1.500000000000000E-01  8.500000000000000E-01
 cg2d: Sum(rhs),rhsMax =   2.64473165589862E-12  1.02275371354834E+01
time,SST,SSS,fu,fv,Q,E-P,i0,i1,a,b =   4.3200E+06 -4.7386E-01  3.4447E+01 -1.6562E-02 -1.4793E-02  2.3630E+02  0.0000E+00     2     3  1.6667E-01  8.3333E-01
time,fu0,fu1,fu =   4.3200E+06 -1.4435E-02 -2.7199E-02 -1.6562E-02  1.666666666666667E-01  8.333333333333334E-01
 cg2d: Sum(rhs),rhsMax =   2.58188609381094E-12  1.01758675494104E+01
time,SST,SSS,fu,fv,Q,E-P,i0,i1,a,b =   4.3632E+06 -4.6807E-01  3.4450E+01 -1.6775E-02 -1.4508E-02  2.3588E+02  0.0000E+00     2     3  1.8333E-01  8.1667E-01
time,fu0,fu1,fu =   4.3632E+06 -1.4435E-02 -2.7199E-02 -1.6775E-02  1.833333333333333E-01  8.166666666666667E-01
 cg2d: Sum(rhs),rhsMax =   2.54214704842326E-12  1.00619942772181E+01
time,SST,SSS,fu,fv,Q,E-P,i0,i1,a,b =   4.4064E+06 -4.6227E-01  3.4453E+01 -1.6988E-02 -1.4224E-02  2.3546E+02  0.0000E+00     2     3  2.0000E-01  8.0000E-01
time,fu0,fu1,fu =   4.4064E+06 -1.4435E-02 -2.7199E-02 -1.6988E-02  2.000000000000000E-01  8.000000000000000E-01
 cg2d: Sum(rhs),rhsMax =   2.39747111052679E-12  9.89195660371727E+00
time,SST,SSS,fu,fv,Q,E-P,i0,i1,a,b =   4.4496E+06 -4.5647E-01  3.4455E+01 -1.7200E-02 -1.3940E-02  2.3505E+02  0.0000E+00     2     3  2.1667E-01  7.8333E-01
time,fu0,fu1,fu =   4.4496E+06 -1.4435E-02 -2.7199E-02 -1.7200E-02  2.166666666666667E-01  7.833333333333333E-01
 cg2d: Sum(rhs),rhsMax =   2.28962682147227E-12  9.67292308179847E+00
time,SST,SSS,fu,fv,Q,E-P,i0,i1,a,b =   4.4928E+06 -4.5067E-01  3.4458E+01 -1.7413E-02 -1.3655E-02  2.3463E+02  0.0000E+00     2     3  2.3333E-01  7.6667E-01
time,fu0,fu1,fu =   4.4928E+06 -1.4435E-02 -2.7199E-02 -1.7413E-02  2.333333333333333E-01  7.666666666666666E-01
 cg2d: Sum(rhs),rhsMax =   2.52290549562773E-12  9.41296162690684E+00
time,SST,SSS,fu,fv,Q,E-P,i0,i1,a,b =   4.5360E+06 -4.4487E-01  3.4461E+01 -1.7626E-02 -1.3371E-02  2.3421E+02  0.0000E+00     2     3  2.5000E-01  7.5000E-01
time,fu0,fu1,fu =   4.5360E+06 -1.4435E-02 -2.7199E-02 -1.7626E-02  2.500000000000000E-01  7.500000000000000E-01
 cg2d: Sum(rhs),rhsMax =   2.79701262151377E-12  9.12079362518669E+00
time,SST,SSS,fu,fv,Q,E-P,i0,i1,a,b =   4.5792E+06 -4.3907E-01  3.4463E+01 -1.7838E-02 -1.3087E-02  2.3379E+02  0.0000E+00     2     3  2.6667E-01  7.3333E-01
time,fu0,fu1,fu =   4.5792E+06 -1.4435E-02 -2.7199E-02 -1.7838E-02  2.666666666666667E-01  7.333333333333334E-01
 cg2d: Sum(rhs),rhsMax =   2.53572857156215E-12  8.86256550945315E+00
time,SST,SSS,fu,fv,Q,E-P,i0,i1,a,b =   4.6224E+06 -4.3327E-01  3.4466E+01 -1.8051E-02 -1.2803E-02  2.3337E+02  0.0000E+00     2     3  2.8333E-01  7.1667E-01
time,fu0,fu1,fu =   4.6224E+06 -1.4435E-02 -2.7199E-02 -1.8051E-02  2.833333333333333E-01  7.166666666666667E-01
 cg2d: Sum(rhs),rhsMax =   2.51162979303388E-12  8.89641381890565E+00
time,SST,SSS,fu,fv,Q,E-P,i0,i1,a,b =   4.6656E+06 -4.2747E-01  3.4469E+01 -1.8264E-02 -1.2518E-02  2.3296E+02  0.0000E+00     2     3  3.0000E-01  7.0000E-01
time,fu0,fu1,fu =   4.6656E+06 -1.4435E-02 -2.7199E-02 -1.8264E-02  3.000000000000000E-01  7.000000000000000E-01
 cg2d: Sum(rhs),rhsMax =   2.65756167072695E-12  8.91497215947116E+00
time,SST,SSS,fu,fv,Q,E-P,i0,i1,a,b =   4.7088E+06 -4.2167E-01  3.4471E+01 -1.8477E-02 -1.2234E-02  2.3254E+02  0.0000E+00     2     3  3.1667E-01  6.8333E-01
time,fu0,fu1,fu =   4.7088E+06 -1.4435E-02 -2.7199E-02 -1.8477E-02  3.166666666666667E-01  6.833333333333333E-01
 cg2d: Sum(rhs),rhsMax =   2.54235521524038E-12  8.91793958262045E+00
time,SST,SSS,fu,fv,Q,E-P,i0,i1,a,b =   4.7520E+06 -4.1587E-01  3.4474E+01 -1.8689E-02 -1.1950E-02  2.3212E+02  0.0000E+00     2     3  3.3333E-01  6.6667E-01
time,fu0,fu1,fu =   4.7520E+06 -1.4435E-02 -2.7199E-02 -1.8689E-02  3.333333333333333E-01  6.666666666666667E-01
 cg2d: Sum(rhs),rhsMax =   2.52076831630532E-12  8.90561081599178E+00
time,SST,SSS,fu,fv,Q,E-P,i0,i1,a,b =   4.7952E+06 -4.1007E-01  3.4476E+01 -1.8902E-02 -1.1665E-02  2.3170E+02  0.0000E+00     2     3  3.5000E-01  6.5000E-01
time,fu0,fu1,fu =   4.7952E+06 -1.4435E-02 -2.7199E-02 -1.8902E-02  3.500000000000000E-01  6.500000000000000E-01
 cg2d: Sum(rhs),rhsMax =   2.62521254734693E-12  8.87885334570693E+00
time,SST,SSS,fu,fv,Q,E-P,i0,i1,a,b =   4.8384E+06 -4.0427E-01  3.4479E+01 -1.9115E-02 -1.1381E-02  2.3128E+02  0.0000E+00     2     3  3.6667E-01  6.3333E-01
time,fu0,fu1,fu =   4.8384E+06 -1.4435E-02 -2.7199E-02 -1.9115E-02  3.666666666666666E-01  6.333333333333333E-01
 cg2d: Sum(rhs),rhsMax =   2.62097288317165E-12  8.83905894786884E+00
time,SST,SSS,fu,fv,Q,E-P,i0,i1,a,b =   4.8816E+06 -3.9848E-01  3.4482E+01 -1.9328E-02 -1.1097E-02  2.3087E+02  0.0000E+00     2     3  3.8333E-01  6.1667E-01
time,fu0,fu1,fu =   4.8816E+06 -1.4435E-02 -2.7199E-02 -1.9328E-02  3.833333333333334E-01  6.166666666666667E-01
 cg2d: Sum(rhs),rhsMax =   2.63095101260546E-12  8.78807244480090E+00
time,SST,SSS,fu,fv,Q,E-P,i0,i1,a,b =   4.9248E+06 -3.9268E-01  3.4484E+01 -1.9540E-02 -1.0813E-02  2.3045E+02  0.0000E+00     2     3  4.0000E-01  6.0000E-01
time,fu0,fu1,fu =   4.9248E+06 -1.4435E-02 -2.7199E-02 -1.9540E-02  4.000000000000000E-01  6.000000000000000E-01
 cg2d: Sum(rhs),rhsMax =   2.09376960214058E-12  8.72810162265046E+00
time,SST,SSS,fu,fv,Q,E-P,i0,i1,a,b =   4.9680E+06 -3.8688E-01  3.4487E+01 -1.9753E-02 -1.0528E-02  2.3003E+02  0.0000E+00     2     3  4.1667E-01  5.8333E-01
time,fu0,fu1,fu =   4.9680E+06 -1.4435E-02 -2.7199E-02 -1.9753E-02  4.166666666666667E-01  5.833333333333333E-01
 cg2d: Sum(rhs),rhsMax =   2.27073221337193E-12  8.66161330213223E+00
time,SST,SSS,fu,fv,Q,E-P,i0,i1,a,b =   5.0112E+06 -3.8108E-01  3.4490E+01 -1.9966E-02 -1.0244E-02  2.2961E+02  0.0000E+00     2     3  4.3333E-01  5.6667E-01
time,fu0,fu1,fu =   5.0112E+06 -1.4435E-02 -2.7199E-02 -1.9966E-02  4.333333333333333E-01  5.666666666666667E-01
 cg2d: Sum(rhs),rhsMax =   2.62680155405093E-12  8.59122120796484E+00
time,SST,SSS,fu,fv,Q,E-P,i0,i1,a,b =   5.0544E+06 -3.7528E-01  3.4492E+01 -2.0179E-02 -9.9597E-03  2.2919E+02  0.0000E+00     2     3  4.5000E-01  5.5000E-01
time,fu0,fu1,fu =   5.0544E+06 -1.4435E-02 -2.7199E-02 -2.0179E-02  4.500000000000000E-01  5.500000000000000E-01
 cg2d: Sum(rhs),rhsMax =   2.30440666548759E-12  8.77527693524392E+00
time,SST,SSS,fu,fv,Q,E-P,i0,i1,a,b =   5.0976E+06 -3.6948E-01  3.4495E+01 -2.0391E-02 -9.6754E-03  2.2877E+02  0.0000E+00     2     3  4.6667E-01  5.3333E-01
time,fu0,fu1,fu =   5.0976E+06 -1.4435E-02 -2.7199E-02 -2.0391E-02  4.666666666666667E-01  5.333333333333333E-01
 cg2d: Sum(rhs),rhsMax =   1.56114010607666E-12  9.00166247662779E+00
time,SST,SSS,fu,fv,Q,E-P,i0,i1,a,b =   5.1408E+06 -3.6368E-01  3.4497E+01 -2.0604E-02 -9.3911E-03  2.2836E+02  0.0000E+00     2     3  4.8333E-01  5.1667E-01
time,fu0,fu1,fu =   5.1408E+06 -1.4435E-02 -2.7199E-02 -2.0604E-02  4.833333333333333E-01  5.166666666666666E-01
 cg2d: Sum(rhs),rhsMax =   2.49643361538432E-12  9.15305723763295E+00
 --> objf_test(bi,bj)   =  0.000000000000000E+00
 --> objf_tracer(bi,bj) =  0.000000000000000E+00
 --> objf_atl(bi,bj)    = -0.114865701821792E+00
  local fc = -0.114865701821792E+00
 global fc = -0.114865701821792E+00
(PID.TID 0000.0001)  MDSREADFIELD: opening file: xx_theta.0000000000.001.001.data
 grad-res -------------------------------
 grad-res     0    2   44    2    1   -.114865705E+00 -.114865709E+00 -.114865702E+00
 grad-res     0    2    2    2 2315   -.341554989E-06 -.341559141E-06 -.121566497E-04
(PID.TID 0000.0001)       precision_grdchk_result TLM    -1.14865705235554E-01    -3.41554988528659E-07
 ph-grd  ierr ---------------------------
 ph-grd  ierr =  0, icomp =  2, ichknum =  2
(PID.TID 0000.0001) 
(PID.TID 0000.0001) // =======================================================
(PID.TID 0000.0001) // Gradient check results  >>> START <<<
(PID.TID 0000.0001) // =======================================================
(PID.TID 0000.0001) 
(PID.TID 0000.0001) 
(PID.TID 0000.0001)  EPS =  0.100E-01
(PID.TID 0000.0001) grdchk output:            procId               I        ITILEPOS        JTILEPOS           LAYER            X(I)      X(I)+/-EPS
(PID.TID 0000.0001) grdchk output:                                FC             FC1             FC2 FC1-FC2/(2*EPS)    TLM GRAD(FC)  1-FDGRD/TLMGRD
(PID.TID 0000.0001) grdchk output:                 0               1              43               2               1 0.000000000E+00 -.100000000E-01
(PID.TID 0000.0001) grdchk output:                   -.114865705E+00 -.114865709E+00 -.114865702E+00 -.326971034E-06 -.326970089E-06 -.289212458E-05
(PID.TID 0000.0001) 
(PID.TID 0000.0001) grdchk output:                 0               2              44               2               1 0.000000000E+00 -.100000000E-01
(PID.TID 0000.0001) grdchk output:                   -.114865705E+00 -.114865709E+00 -.114865702E+00 -.341559141E-06 -.341554989E-06 -.121566497E-04
(PID.TID 0000.0001) 
(PID.TID 0000.0001) 
(PID.TID 0000.0001) // =======================================================
(PID.TID 0000.0001) // Gradient check results  >>> END <<<
(PID.TID 0000.0001) // =======================================================
(PID.TID 0000.0001) 
(PID.TID 0000.0001) %CHECKPOINT       120 ckptA
(PID.TID 0000.0001)   Seconds in section "ALL                    [THE_MODEL_MAIN]":
(PID.TID 0000.0001)           User time:  1158.99175
(PID.TID 0000.0001)         System time:  3.51546611
(PID.TID 0000.0001)     Wall clock time:  1216.56142
(PID.TID 0000.0001)          No. starts: 1
(PID.TID 0000.0001)           No. stops: 1
(PID.TID 0000.0001)   Seconds in section "INITIALISE_FIXED       [THE_MODEL_MAIN]":
(PID.TID 0000.0001)           User time:  1.73873598
(PID.TID 0000.0001)         System time:  0.181973001
(PID.TID 0000.0001)     Wall clock time:  2.0884099
(PID.TID 0000.0001)          No. starts: 1
(PID.TID 0000.0001)           No. stops: 1
(PID.TID 0000.0001)   Seconds in section "G_THE_MAIN_LOOP           [TANGENT RUN]":
(PID.TID 0000.0001)           User time:  237.743861
(PID.TID 0000.0001)         System time:  0.965852976
(PID.TID 0000.0001)     Wall clock time:  249.14057
(PID.TID 0000.0001)          No. starts: 1
(PID.TID 0000.0001)           No. stops: 1
(PID.TID 0000.0001)   Seconds in section "I/O (WRITE)        [ADJOINT LOOP]":
(PID.TID 0000.0001)           User time:  2.9426527
(PID.TID 0000.0001)         System time:  1.07783569
(PID.TID 0000.0001)     Wall clock time:  4.25940514
(PID.TID 0000.0001)          No. starts: 840
(PID.TID 0000.0001)           No. stops: 840
(PID.TID 0000.0001)   Seconds in section "CTRL_PACK           [THE_MODEL_MAIN]":
(PID.TID 0000.0001)           User time:  0.18397522
(PID.TID 0000.0001)         System time:  0.0199970007
(PID.TID 0000.0001)     Wall clock time:  0.242576122
(PID.TID 0000.0001)          No. starts: 1
(PID.TID 0000.0001)           No. stops: 1
(PID.TID 0000.0001)   Seconds in section "GRDCHK_MAIN         [THE_MODEL_MAIN]":
(PID.TID 0000.0001)           User time:  919.167221
(PID.TID 0000.0001)         System time:  2.28965211
(PID.TID 0000.0001)     Wall clock time:  964.832691
(PID.TID 0000.0001)          No. starts: 1
(PID.TID 0000.0001)           No. stops: 1
(PID.TID 0000.0001)   Seconds in section "ADJOINT SPIN-UP":
(PID.TID 0000.0001)           User time:  1.18890381
(PID.TID 0000.0001)         System time:  0.0509908199
(PID.TID 0000.0001)     Wall clock time:  1.29430366
(PID.TID 0000.0001)          No. starts: 4
(PID.TID 0000.0001)           No. stops: 4
(PID.TID 0000.0001)   Seconds in section "INITIALISE_VARIA    [THE_MAIN_LOOP]":
(PID.TID 0000.0001)           User time:  0.849914551
(PID.TID 0000.0001)         System time:  0.0259951353
(PID.TID 0000.0001)     Wall clock time:  0.915286303
(PID.TID 0000.0001)          No. starts: 4
(PID.TID 0000.0001)           No. stops: 4
(PID.TID 0000.0001)   Seconds in section "MAIN LOOP           [THE_MAIN_LOOP]":
(PID.TID 0000.0001)           User time:  435.569794
(PID.TID 0000.0001)         System time:  0.804879189
(PID.TID 0000.0001)     Wall clock time:  457.984902
(PID.TID 0000.0001)          No. starts: 4
(PID.TID 0000.0001)           No. stops: 4
(PID.TID 0000.0001)   Seconds in section "FORWARD_STEP        [THE_MAIN_LOOP]":
(PID.TID 0000.0001)           User time:  435.554993
(PID.TID 0000.0001)         System time:  0.801879168
(PID.TID 0000.0001)     Wall clock time:  457.965397
(PID.TID 0000.0001)          No. starts: 480
(PID.TID 0000.0001)           No. stops: 480
(PID.TID 0000.0001)   Seconds in section "LOAD_FIELDS_DRIVER  [FORWARD_STEP]":
(PID.TID 0000.0001)           User time:  0.475463867
(PID.TID 0000.0001)         System time:  0.0199995041
(PID.TID 0000.0001)     Wall clock time:  0.50332737
(PID.TID 0000.0001)          No. starts: 480
(PID.TID 0000.0001)           No. stops: 480
(PID.TID 0000.0001)   Seconds in section "EXTERNAL_FLDS_LOAD [LOAD_FLDS_DRIVER]":
(PID.TID 0000.0001)           User time:  0.442260742
(PID.TID 0000.0001)         System time:  0.0159988403
(PID.TID 0000.0001)     Wall clock time:  0.46303916
(PID.TID 0000.0001)          No. starts: 480
(PID.TID 0000.0001)           No. stops: 480
(PID.TID 0000.0001)   Seconds in section "DO_ATMOSPHERIC_PHYS [FORWARD_STEP]":
(PID.TID 0000.0001)           User time:  0.0121154785
(PID.TID 0000.0001)         System time:  0.
(PID.TID 0000.0001)     Wall clock time:  0.0164988041
(PID.TID 0000.0001)          No. starts: 480
(PID.TID 0000.0001)           No. stops: 480
(PID.TID 0000.0001)   Seconds in section "DO_OCEANIC_PHYS     [FORWARD_STEP]":
(PID.TID 0000.0001)           User time:  113.781006
(PID.TID 0000.0001)         System time:  0.150973916
(PID.TID 0000.0001)     Wall clock time:  120.287362
(PID.TID 0000.0001)          No. starts: 480
(PID.TID 0000.0001)           No. stops: 480
(PID.TID 0000.0001)   Seconds in section "THERMODYNAMICS      [FORWARD_STEP]":
(PID.TID 0000.0001)           User time:  122.75705
(PID.TID 0000.0001)         System time:  0.170972347
(PID.TID 0000.0001)     Wall clock time:  128.643535
(PID.TID 0000.0001)          No. starts: 480
(PID.TID 0000.0001)           No. stops: 480
(PID.TID 0000.0001)   Seconds in section "DYNAMICS            [FORWARD_STEP]":
(PID.TID 0000.0001)           User time:  150.571686
(PID.TID 0000.0001)         System time:  0.237966776
(PID.TID 0000.0001)     Wall clock time:  157.87831
(PID.TID 0000.0001)          No. starts: 480
(PID.TID 0000.0001)           No. stops: 480
(PID.TID 0000.0001)   Seconds in section "SOLVE_FOR_PRESSURE  [FORWARD_STEP]":
(PID.TID 0000.0001)           User time:  23.3887329
(PID.TID 0000.0001)         System time:  0.0349957943
(PID.TID 0000.0001)     Wall clock time:  24.5279338
(PID.TID 0000.0001)          No. starts: 480
(PID.TID 0000.0001)           No. stops: 480
(PID.TID 0000.0001)   Seconds in section "MOM_CORRECTION_STEP [FORWARD_STEP]":
(PID.TID 0000.0001)           User time:  5.71078491
(PID.TID 0000.0001)         System time:  0.00599908829
(PID.TID 0000.0001)     Wall clock time:  6.03479695
(PID.TID 0000.0001)          No. starts: 480
(PID.TID 0000.0001)           No. stops: 480
(PID.TID 0000.0001)   Seconds in section "TRC_CORRECTION_STEP [FORWARD_STEP]":
(PID.TID 0000.0001)           User time:  1.61761475
(PID.TID 0000.0001)         System time:  0.00399899483
(PID.TID 0000.0001)     Wall clock time:  1.72597718
(PID.TID 0000.0001)          No. starts: 480
(PID.TID 0000.0001)           No. stops: 480
(PID.TID 0000.0001)   Seconds in section "BLOCKING_EXCHANGES  [FORWARD_STEP]":
(PID.TID 0000.0001)           User time:  3.18429565
(PID.TID 0000.0001)         System time:  0.00899803638
(PID.TID 0000.0001)     Wall clock time:  3.30584407
(PID.TID 0000.0001)          No. starts: 480
(PID.TID 0000.0001)           No. stops: 480
(PID.TID 0000.0001)   Seconds in section "MONITOR             [FORWARD_STEP]":
(PID.TID 0000.0001)           User time:  11.4823608
(PID.TID 0000.0001)         System time:  0.0319949389
(PID.TID 0000.0001)     Wall clock time:  12.2052522
(PID.TID 0000.0001)          No. starts: 480
(PID.TID 0000.0001)           No. stops: 480
(PID.TID 0000.0001)   Seconds in section "COST_TILE           [FORWARD_STEP]":
(PID.TID 0000.0001)           User time:  1.58453369
(PID.TID 0000.0001)         System time:  0.00199997425
(PID.TID 0000.0001)     Wall clock time:  1.66117001
(PID.TID 0000.0001)          No. starts: 480
(PID.TID 0000.0001)           No. stops: 480
(PID.TID 0000.0001)   Seconds in section "DO_THE_MODEL_IO     [FORWARD_STEP]":
(PID.TID 0000.0001)           User time:  0.706939697
(PID.TID 0000.0001)         System time:  0.0909878016
(PID.TID 0000.0001)     Wall clock time:  0.849924803
(PID.TID 0000.0001)          No. starts: 480
(PID.TID 0000.0001)           No. stops: 480
(PID.TID 0000.0001)   Seconds in section "DO_WRITE_PICKUP     [FORWARD_STEP]":
(PID.TID 0000.0001)           User time:  0.0148010254
(PID.TID 0000.0001)         System time:  0.000999927521
(PID.TID 0000.0001)     Wall clock time:  0.0179834366
(PID.TID 0000.0001)          No. starts: 480
(PID.TID 0000.0001)           No. stops: 480
(PID.TID 0000.0001)   Seconds in section "COST_FINAL           [THE_MAIN_LOOP]":
(PID.TID 0000.0001)           User time:  0.0009765625
(PID.TID 0000.0001)         System time:  0.
(PID.TID 0000.0001)     Wall clock time:  0.000699996948
(PID.TID 0000.0001)          No. starts: 4
(PID.TID 0000.0001)           No. stops: 4
(PID.TID 0000.0001)   Seconds in section "DO_WRITE_PICKUP        [THE_MODEL_MAIN]":
(PID.TID 0000.0001)           User time:  0.157958984
(PID.TID 0000.0001)         System time:  0.0579910278
(PID.TID 0000.0001)     Wall clock time:  0.256911993
(PID.TID 0000.0001)          No. starts: 1
(PID.TID 0000.0001)           No. stops: 1
(PID.TID 0000.0001) // ======================================================
(PID.TID 0000.0001) // Tile <-> Tile communication statistics
(PID.TID 0000.0001) // ======================================================
(PID.TID 0000.0001) // o Tile number: 000001
(PID.TID 0000.0001) //         No. X exchanges =              0
(PID.TID 0000.0001) //            Max. X spins =              0
(PID.TID 0000.0001) //            Min. X spins =     1000000000
(PID.TID 0000.0001) //          Total. X spins =              0
(PID.TID 0000.0001) //            Avg. X spins =       0.00E+00
(PID.TID 0000.0001) //         No. Y exchanges =              0
(PID.TID 0000.0001) //            Max. Y spins =              0
(PID.TID 0000.0001) //            Min. Y spins =     1000000000
(PID.TID 0000.0001) //          Total. Y spins =              0
(PID.TID 0000.0001) //            Avg. Y spins =       0.00E+00
(PID.TID 0000.0001) // o Thread number: 000001
(PID.TID 0000.0001) //            No. barriers =         533568
(PID.TID 0000.0001) //      Max. barrier spins =              1
(PID.TID 0000.0001) //      Min. barrier spins =              1
(PID.TID 0000.0001) //     Total barrier spins =         533568
(PID.TID 0000.0001) //      Avg. barrier spins =       1.00E+00
